  Page 1                                          2017. 12. 10. 17:16:40
  **********************************************************************
  *                             E P A N E T                            *
  *                     Hydraulic and Water Quality                    *
  *                     Analysis for Pipe Networks                     *
  *                           Version 2.0                              *
  **********************************************************************
  
  Input File: example1.net
  
  Example network
  The tank is included only because without it. the wireing in the .inp file 
  didn't appear. If the tank is present. it is possible to define negative demand
  nodes as pump inputs. 
  
  Link - Node Table:
  ----------------------------------------------------------------------
  Link           Start          End                Length  Diameter
  ID             Node           Node                    m        mm
  ----------------------------------------------------------------------
  1              1              3                     350       200
  2              1              4                     500       200
  3              3              5                     500       200
  4              4              5                     350       200
  flowmeas_5     4              cripressure_6         500       200
  flowmeas_6     5              cripressure_2         500       200
  flowmeas_7     cripressure_2  cripressure_6         350       200
  PI2            JU1            cripressure_6         350       200
  PI3            JU1            JU3                   350       200
  PI4            JU1            JU4                   350       200
  PI5            JU1            JU5                   350       200
  PI6            JU1            JU2                   350       200
  PI7            JU2            JU6                   350       200
  PI8            JU6            cripressure_2         350       200
  PI9            JU6            TA2                   350       200
  PU2            9              1                    #N/A      #N/A Pump
  PU3            10             cripressure_2        #N/A      #N/A Pump
  
  Energy Usage:
  ----------------------------------------------------------------------
                    Usage   Avg.     Kw-hr      Avg.      Peak      Cost
  Pump             Factor Effic.     /m3        Kw        Kw      /day
  ----------------------------------------------------------------------
  PU2               81.44  75.00      0.16     19.81     20.79      0.00
  PU3               23.85  75.00      0.16     10.09     10.57      0.00
  ----------------------------------------------------------------------
                                                Demand Charge:      0.00
                                                Total Cost:         0.00
  


  Page 2                                                 Example network
  Node Results at 0:00 Hrs:
  ----------------------------------------------------------------------
  Node                Demand      Head  Pressure   Quality
  ID                     LPS         m         m          
  ----------------------------------------------------------------------
  1                     0.00     44.58     44.58      0.00
  cripressure_2         0.00     43.36     43.36      0.00
  3                     2.05     44.23     42.23      0.00
  4                     0.00     43.86     43.86      0.00
  5                     0.00     43.85     43.85      0.00
  cripressure_6         6.15     43.26     23.26      0.00
  JU1                   0.00     42.79     42.79      0.00
  JU2                   0.00     42.58     42.58      0.00
  JU3                   2.05     42.78     42.78      0.00
  JU4                   2.05     42.78     42.78      0.00
  JU5                   2.05     42.78     42.78      0.00
  JU6                   0.00     42.37     42.37      0.00
  9                   -32.41      0.00      0.00      0.00 Reservoir
  10                  -18.64      0.00      0.00      0.00 Reservoir
  TA2                  36.70     40.50     19.50      0.00 Tank
  
  Link Results at 0:00 Hrs:
  ----------------------------------------------------------------------
  Link                  Flow  VelocityUnit Headloss    Status
  ID                     LPS       m/s      m/km
  ----------------------------------------------------------------------
  1                    14.55      0.46      1.00      Open
  2                    17.85      0.57      1.45      Open
  3                    12.50      0.40      0.77      Open
  4                     1.83      0.06      0.03      Open
  flowmeas_5           16.03      0.51      1.19      Open
  flowmeas_6           14.33      0.46      0.98      Open
  flowmeas_7            7.18      0.23      0.28      Open
  PI2                 -17.05      0.54      1.34      Open
  PI3                   2.05      0.07      0.03      Open
  PI4                   2.05      0.07      0.03      Open
  PI5                   2.05      0.07      0.03      Open
  PI6                  10.90      0.35      0.60      Open
  PI7                  10.90      0.35      0.60      Open
  PI8                 -25.79      0.82      2.82      Open
  PI9                  36.70      1.17      5.35      Open
  PU2                  32.41      0.00    -44.58      Open Pump
  PU3                  18.64      0.00    -43.36      Open Pump
  


  Page 3                                                 Example network
  Node Results at 1:00 Hrs:
  ----------------------------------------------------------------------
  Node                Demand      Head  Pressure   Quality
  ID                     LPS         m         m          
  ----------------------------------------------------------------------
  1                     0.00     44.97     44.97      0.00
  cripressure_2         0.00     43.75     43.75      0.00
  3                     1.40     44.65     42.65      0.00
  4                     0.00     44.27     44.27      0.00
  5                     0.00     44.26     44.26      0.00
  cripressure_6         4.20     43.69     23.69      0.00
  JU1                   0.00     43.24     43.24      0.00
  JU2                   0.00     42.97     42.97      0.00
  JU3                   1.40     43.23     43.23      0.00
  JU4                   1.40     43.23     43.23      0.00
  JU5                   1.40     43.23     43.23      0.00
  JU6                   0.00     42.69     42.69      0.00
  9                   -31.67      0.00      0.00      0.00 Reservoir
  10                  -17.50      0.00      0.00      0.00 Reservoir
  TA2                  39.37     40.57     19.57      0.00 Tank
  
  Link Results at 1:00 Hrs:
  ----------------------------------------------------------------------
  Link                  Flow  VelocityUnit Headloss    Status
  ID                     LPS       m/s      m/km
  ----------------------------------------------------------------------
  1                    14.04      0.45      0.94      Open
  2                    17.63      0.56      1.42      Open
  3                    12.64      0.40      0.78      Open
  4                     1.96      0.06      0.03      Open
  flowmeas_5           15.67      0.50      1.15      Open
  flowmeas_6           14.60      0.46      1.01      Open
  flowmeas_7            5.32      0.17      0.17      Open
  PI2                 -16.79      0.53      1.30      Open
  PI3                   1.40      0.04      0.02      Open
  PI4                   1.40      0.04      0.02      Open
  PI5                   1.40      0.04      0.02      Open
  PI6                  12.59      0.40      0.78      Open
  PI7                  12.59      0.40      0.78      Open
  PI8                 -26.78      0.85      3.02      Open
  PI9                  39.37      1.25      6.08      Open
  PU2                  31.67      0.00    -44.97      Open Pump
  PU3                  17.50      0.00    -43.75      Open Pump
  


  Page 4                                                 Example network
  Node Results at 2:00 Hrs:
  ----------------------------------------------------------------------
  Node                Demand      Head  Pressure   Quality
  ID                     LPS         m         m          
  ----------------------------------------------------------------------
  1                     0.00     45.10     45.10      0.00
  cripressure_2         0.00     43.87     43.87      0.00
  3                     1.25     44.77     42.77      0.00
  4                     0.00     44.39     44.39      0.00
  5                     0.00     44.38     44.38      0.00
  cripressure_6         3.75     43.83     23.83      0.00
  JU1                   0.00     43.38     43.38      0.00
  JU2                   0.00     43.09     43.09      0.00
  JU3                   1.25     43.37     43.37      0.00
  JU4                   1.25     43.37     43.37      0.00
  JU5                   1.25     43.37     43.37      0.00
  JU6                   0.00     42.81     42.81      0.00
  9                   -31.44      0.00      0.00      0.00 Reservoir
  10                  -17.12      0.00      0.00      0.00 Reservoir
  TA2                  39.81     40.64     19.64      0.00 Tank
  
  Link Results at 2:00 Hrs:
  ----------------------------------------------------------------------
  Link                  Flow  VelocityUnit Headloss    Status
  ID                     LPS       m/s      m/km
  ----------------------------------------------------------------------
  1                    13.89      0.44      0.92      Open
  2                    17.55      0.56      1.41      Open
  3                    12.64      0.40      0.78      Open
  4                     1.98      0.06      0.03      Open
  flowmeas_5           15.57      0.50      1.13      Open
  flowmeas_6           14.63      0.47      1.01      Open
  flowmeas_7            4.84      0.15      0.14      Open
  PI2                 -16.66      0.53      1.28      Open
  PI3                   1.25      0.04      0.01      Open
  PI4                   1.25      0.04      0.01      Open
  PI5                   1.25      0.04      0.01      Open
  PI6                  12.91      0.41      0.81      Open
  PI7                  12.91      0.41      0.81      Open
  PI8                 -26.90      0.86      3.04      Open
  PI9                  39.81      1.27      6.20      Open
  PU2                  31.44      0.00    -45.10      Open Pump
  PU3                  17.12      0.00    -43.87      Open Pump
  


  Page 5                                                 Example network
  Node Results at 3:00 Hrs:
  ----------------------------------------------------------------------
  Node                Demand      Head  Pressure   Quality
  ID                     LPS         m         m          
  ----------------------------------------------------------------------
  1                     0.00     45.11     45.11      0.00
  cripressure_2         0.00     43.89     43.89      0.00
  3                     1.30     44.78     42.78      0.00
  4                     0.00     44.40     44.40      0.00
  5                     0.00     44.39     44.39      0.00
  cripressure_6         3.90     43.84     23.84      0.00
  JU1                   0.00     43.39     43.39      0.00
  JU2                   0.00     43.12     43.12      0.00
  JU3                   1.30     43.39     43.39      0.00
  JU4                   1.30     43.39     43.39      0.00
  JU5                   1.30     43.39     43.39      0.00
  JU6                   0.00     42.84     42.84      0.00
  9                   -31.42      0.00      0.00      0.00 Reservoir
  10                  -17.07      0.00      0.00      0.00 Reservoir
  TA2                  39.39     40.71     19.71      0.00 Tank
  
  Link Results at 3:00 Hrs:
  ----------------------------------------------------------------------
  Link                  Flow  VelocityUnit Headloss    Status
  ID                     LPS       m/s      m/km
  ----------------------------------------------------------------------
  1                    13.90      0.44      0.93      Open
  2                    17.52      0.56      1.40      Open
  3                    12.60      0.40      0.78      Open
  4                     1.97      0.06      0.03      Open
  flowmeas_5           15.55      0.49      1.13      Open
  flowmeas_6           14.57      0.46      1.01      Open
  flowmeas_7            4.96      0.16      0.15      Open
  PI2                 -16.61      0.53      1.27      Open
  PI3                   1.30      0.04      0.01      Open
  PI4                   1.30      0.04      0.01      Open
  PI5                   1.30      0.04      0.01      Open
  PI6                  12.71      0.40      0.79      Open
  PI7                  12.71      0.40      0.79      Open
  PI8                 -26.69      0.85      3.00      Open
  PI9                  39.39      1.25      6.08      Open
  PU2                  31.42      0.00    -45.11      Open Pump
  PU3                  17.07      0.00    -43.89      Open Pump
  


  Page 6                                                 Example network
  Node Results at 4:00 Hrs:
  ----------------------------------------------------------------------
  Node                Demand      Head  Pressure   Quality
  ID                     LPS         m         m          
  ----------------------------------------------------------------------
  1                     0.00     45.31     45.31      0.00
  cripressure_2         0.00     44.10     44.10      0.00
  3                     1.00     45.00     43.00      0.00
  4                     0.00     44.62     44.62      0.00
  5                     0.00     44.61     44.61      0.00
  cripressure_6         3.00     44.06     24.06      0.00
  JU1                   0.00     43.63     43.63      0.00
  JU2                   0.00     43.32     43.32      0.00
  JU3                   1.00     43.62     43.62      0.00
  JU4                   1.00     43.62     43.62      0.00
  JU5                   1.00     43.62     43.62      0.00
  JU6                   0.00     43.02     43.02      0.00
  9                   -31.03      0.00      0.00      0.00 Reservoir
  10                  -16.43      0.00      0.00      0.00 Reservoir
  TA2                  40.46     40.78     19.78      0.00 Tank
  
  Link Results at 4:00 Hrs:
  ----------------------------------------------------------------------
  Link                  Flow  VelocityUnit Headloss    Status
  ID                     LPS       m/s      m/km
  ----------------------------------------------------------------------
  1                    13.64      0.43      0.89      Open
  2                    17.40      0.55      1.38      Open
  3                    12.64      0.40      0.78      Open
  4                     2.02      0.06      0.03      Open
  flowmeas_5           15.38      0.49      1.11      Open
  flowmeas_6           14.65      0.47      1.02      Open
  flowmeas_7            4.01      0.13      0.10      Open
  PI2                 -16.39      0.52      1.24      Open
  PI3                   1.00      0.03      0.01      Open
  PI4                   1.00      0.03      0.01      Open
  PI5                   1.00      0.03      0.01      Open
  PI6                  13.39      0.43      0.87      Open
  PI7                  13.39      0.43      0.87      Open
  PI8                 -27.07      0.86      3.08      Open
  PI9                  40.46      1.29      6.39      Open
  PU2                  31.03      0.00    -45.31      Open Pump
  PU3                  16.43      0.00    -44.10      Open Pump
  


  Page 7                                                 Example network
  Node Results at 5:00 Hrs:
  ----------------------------------------------------------------------
  Node                Demand      Head  Pressure   Quality
  ID                     LPS         m         m          
  ----------------------------------------------------------------------
  1                     0.00     39.50     39.50      0.00
  cripressure_2         0.00     39.61     39.61      0.00
  3                     3.55     39.50     37.50      0.00
  4                     0.00     39.50     39.50      0.00
  5                     0.00     39.52     39.52      0.00
  cripressure_6        10.65     39.49     19.49      0.00
  JU1                   0.00     39.49     39.49      0.00
  JU2                   0.00     39.71     39.71      0.00
  JU3                   3.55     39.46     39.46      0.00
  JU4                   3.55     39.46     39.46      0.00
  JU5                   3.55     39.46     39.46      0.00
  JU6                   0.00     39.93     39.93      0.00
  9                     0.00      0.00      0.00      0.00 Reservoir
  10                    0.00      0.00      0.00      0.00 Reservoir
  TA2                 -24.85     40.85     19.85      0.00 Tank
  
  Link Results at 5:00 Hrs:
  ----------------------------------------------------------------------
  Link                  Flow  VelocityUnit Headloss    Status
  ID                     LPS       m/s      m/km
  ----------------------------------------------------------------------
  1                     0.85      0.03      0.01      Open
  2                    -0.85      0.03      0.01      Open
  3                    -2.70      0.09      0.05      Open
  4                    -2.84      0.09      0.06      Open
  flowmeas_5            1.99      0.06      0.03      Open
  flowmeas_6           -5.54      0.18      0.18      Open
  flowmeas_7            8.14      0.26      0.36      Open
  PI2                   0.52      0.02      0.00      Open
  PI3                   3.55      0.11      0.08      Open
  PI4                   3.55      0.11      0.08      Open
  PI5                   3.55      0.11      0.08      Open
  PI6                 -11.17      0.36      0.63      Open
  PI7                 -11.17      0.36      0.63      Open
  PI8                  13.68      0.44      0.90      Open
  PI9                 -24.85      0.79      2.63      Open
  PU2                   0.00      0.00      0.00    Closed Pump
  PU3                   0.00      0.00      0.00    Closed Pump
  


  Page 8                                                 Example network
  Node Results at 6:00 Hrs:
  ----------------------------------------------------------------------
  Node                Demand      Head  Pressure   Quality
  ID                     LPS         m         m          
  ----------------------------------------------------------------------
  1                     0.00     31.28     31.28      0.00
  cripressure_2         0.00     32.05     32.05      0.00
  3                    10.40     31.27     29.27      0.00
  4                     0.00     31.30     31.30      0.00
  5                     0.00     31.44     31.44      0.00
  cripressure_6        31.20     31.20     11.20      0.00
  JU1                   0.00     31.21     31.21      0.00
  JU2                   0.00     32.73     32.73      0.00
  JU3                  10.40     31.02     31.02      0.00
  JU4                  10.40     31.02     31.02      0.00
  JU5                  10.40     31.02     31.02      0.00
  JU6                   0.00     34.25     34.25      0.00
  9                     0.00      0.00      0.00      0.00 Reservoir
  10                    0.00      0.00      0.00      0.00 Reservoir
  TA2                 -72.80     40.80     19.80      0.00 Tank
  
  Link Results at 6:00 Hrs:
  ----------------------------------------------------------------------
  Link                  Flow  VelocityUnit Headloss    Status
  ID                     LPS       m/s      m/km
  ----------------------------------------------------------------------
  1                     2.49      0.08      0.04      Open
  2                    -2.49      0.08      0.04      Open
  3                    -7.91      0.25      0.34      Open
  4                    -8.40      0.27      0.38      Open
  flowmeas_5            5.92      0.19      0.20      Open
  flowmeas_6          -16.32      0.52      1.23      Open
  flowmeas_7           23.75      0.76      2.43      Open
  PI2                   1.53      0.05      0.02      Open
  PI3                  10.40      0.33      0.55      Open
  PI4                  10.40      0.33      0.55      Open
  PI5                  10.40      0.33      0.55      Open
  PI6                 -32.73      1.04      4.34      Open
  PI7                 -32.73      1.04      4.34      Open
  PI8                  40.07      1.28      6.27      Open
  PI9                 -72.80      2.32     18.73      Open
  PU2                   0.00      0.00      0.00    Closed Pump
  PU3                   0.00      0.00      0.00    Closed Pump
  


  Page 9                                                 Example network
  Node Results at 7:00 Hrs:
  ----------------------------------------------------------------------
  Node                Demand      Head  Pressure   Quality
  ID                     LPS         m         m          
  ----------------------------------------------------------------------
  1                     0.00     32.60     32.60      0.00
  cripressure_2         0.00     33.26     33.26      0.00
  3                     9.50     32.59     30.59      0.00
  4                     0.00     32.62     32.62      0.00
  5                     0.00     32.73     32.73      0.00
  cripressure_6        28.50     32.54     12.54      0.00
  JU1                   0.00     32.54     32.54      0.00
  JU2                   0.00     33.83     33.83      0.00
  JU3                   9.50     32.38     32.38      0.00
  JU4                   9.50     32.38     32.38      0.00
  JU5                   9.50     32.38     32.38      0.00
  JU6                   0.00     35.12     35.12      0.00
  9                     0.00      0.00      0.00      0.00 Reservoir
  10                    0.00      0.00      0.00      0.00 Reservoir
  TA2                 -66.50     40.67     19.67      0.00 Tank
  
  Link Results at 7:00 Hrs:
  ----------------------------------------------------------------------
  Link                  Flow  VelocityUnit Headloss    Status
  ID                     LPS       m/s      m/km
  ----------------------------------------------------------------------
  1                     2.27      0.07      0.04      Open
  2                    -2.27      0.07      0.04      Open
  3                    -7.23      0.23      0.29      Open
  4                    -7.67      0.24      0.32      Open
  flowmeas_5            5.40      0.17      0.17      Open
  flowmeas_6          -14.90      0.47      1.05      Open
  flowmeas_7           21.70      0.69      2.06      Open
  PI2                   1.40      0.04      0.02      Open
  PI3                   9.50      0.30      0.47      Open
  PI4                   9.50      0.30      0.47      Open
  PI5                   9.50      0.30      0.47      Open
  PI6                 -29.90      0.95      3.68      Open
  PI7                 -29.90      0.95      3.68      Open
  PI8                  36.60      1.17      5.32      Open
  PI9                 -66.50      2.12     15.86      Open
  PU2                   0.00      0.00      0.00    Closed Pump
  PU3                   0.00      0.00      0.00    Closed Pump
  


  Page 10                                                Example network
  Node Results at 8:00 Hrs:
  ----------------------------------------------------------------------
  Node                Demand      Head  Pressure   Quality
  ID                     LPS         m         m          
  ----------------------------------------------------------------------
  1                     0.00     41.87     41.87      0.00
  cripressure_2         0.00     40.54     40.54      0.00
  3                     5.95     41.37     39.37      0.00
  4                     0.00     41.03     41.03      0.00
  5                     0.00     41.02     41.02      0.00
  cripressure_6        17.85     40.37     20.37      0.00
  JU1                   0.00     40.22     40.22      0.00
  JU2                   0.00     40.36     40.36      0.00
  JU3                   5.95     40.15     40.15      0.00
  JU4                   5.95     40.15     40.15      0.00
  JU5                   5.95     40.15     40.15      0.00
  JU6                   0.00     40.50     40.50      0.00
  9                   -37.09      0.00      0.00      0.00 Reservoir
  10                    0.00      0.00      0.00      0.00 Reservoir
  TA2                  -4.56     40.55     19.55      0.00 Tank
  
  Link Results at 8:00 Hrs:
  ----------------------------------------------------------------------
  Link                  Flow  VelocityUnit Headloss    Status
  ID                     LPS       m/s      m/km
  ----------------------------------------------------------------------
  1                    17.77      0.57      1.44      Open
  2                    19.32      0.61      1.67      Open
  3                    11.82      0.38      0.69      Open
  4                     2.30      0.07      0.04      Open
  flowmeas_5           17.02      0.54      1.33      Open
  flowmeas_6           14.12      0.45      0.95      Open
  flowmeas_7            9.88      0.31      0.50      Open
  PI2                  -9.04      0.29      0.43      Open
  PI3                   5.95      0.19      0.20      Open
  PI4                   5.95      0.19      0.20      Open
  PI5                   5.95      0.19      0.20      Open
  PI6                  -8.81      0.28      0.41      Open
  PI7                  -8.81      0.28      0.41      Open
  PI8                  -4.25      0.14      0.11      Open
  PI9                  -4.56      0.15      0.13      Open
  PU2                  37.09      0.00    -41.87      Open Pump
  PU3                   0.00      0.00      0.00    Closed Pump
  


  Page 11                                                Example network
  Node Results at 9:00 Hrs:
  ----------------------------------------------------------------------
  Node                Demand      Head  Pressure   Quality
  ID                     LPS         m         m          
  ----------------------------------------------------------------------
  1                     0.00     42.00     42.00      0.00
  cripressure_2         0.00     40.63     40.63      0.00
  3                     5.30     41.51     39.51      0.00
  4                     0.00     41.16     41.16      0.00
  5                     0.00     41.14     41.14      0.00
  cripressure_6        15.90     40.50     20.50      0.00
  JU1                   0.00     40.36     40.36      0.00
  JU2                   0.00     40.45     40.45      0.00
  JU3                   5.30     40.30     40.30      0.00
  JU4                   5.30     40.30     40.30      0.00
  JU5                   5.30     40.30     40.30      0.00
  JU6                   0.00     40.54     40.54      0.00
  9                   -36.88      0.00      0.00      0.00 Reservoir
  10                    0.00      0.00      0.00      0.00 Reservoir
  TA2                  -0.22     40.54     19.54      0.00 Tank
  
  Link Results at 9:00 Hrs:
  ----------------------------------------------------------------------
  Link                  Flow  VelocityUnit Headloss    Status
  ID                     LPS       m/s      m/km
  ----------------------------------------------------------------------
  1                    17.51      0.56      1.40      Open
  2                    19.38      0.62      1.68      Open
  3                    12.21      0.39      0.73      Open
  4                     2.54      0.08      0.05      Open
  flowmeas_5           16.84      0.54      1.31      Open
  flowmeas_6           14.74      0.47      1.03      Open
  flowmeas_7            8.08      0.26      0.35      Open
  PI2                  -9.01      0.29      0.43      Open
  PI3                   5.30      0.17      0.17      Open
  PI4                   5.30      0.17      0.17      Open
  PI5                   5.30      0.17      0.17      Open
  PI6                  -6.89      0.22      0.26      Open
  PI7                  -6.89      0.22      0.26      Open
  PI8                  -6.67      0.21      0.25      Open
  PI9                  -0.22      0.01      0.00      Open
  PU2                  36.88      0.00    -42.00      Open Pump
  PU3                   0.00      0.00      0.00    Closed Pump
  


  Page 12                                                Example network
  Node Results at 10:00 Hrs:
  ----------------------------------------------------------------------
  Node                Demand      Head  Pressure   Quality
  ID                     LPS         m         m          
  ----------------------------------------------------------------------
  1                     0.00     42.07     42.07      0.00
  cripressure_2         0.00     40.68     40.68      0.00
  3                     4.90     41.59     39.59      0.00
  4                     0.00     41.23     41.23      0.00
  5                     0.00     41.21     41.21      0.00
  cripressure_6        14.70     40.58     20.58      0.00
  JU1                   0.00     40.43     40.43      0.00
  JU2                   0.00     40.49     40.49      0.00
  JU3                   4.90     40.38     40.38      0.00
  JU4                   4.90     40.38     40.38      0.00
  JU5                   4.90     40.38     40.38      0.00
  JU6                   0.00     40.56     40.56      0.00
  9                   -36.76      0.00      0.00      0.00 Reservoir
  10                    0.00      0.00      0.00      0.00 Reservoir
  TA2                   2.46     40.54     19.54      0.00 Tank
  
  Link Results at 10:00 Hrs:
  ----------------------------------------------------------------------
  Link                  Flow  VelocityUnit Headloss    Status
  ID                     LPS       m/s      m/km
  ----------------------------------------------------------------------
  1                    17.34      0.55      1.38      Open
  2                    19.42      0.62      1.69      Open
  3                    12.44      0.40      0.76      Open
  4                     2.64      0.08      0.05      Open
  flowmeas_5           16.78      0.53      1.30      Open
  flowmeas_6           15.08      0.48      1.07      Open
  flowmeas_7            7.04      0.22      0.28      Open
  PI2                  -9.12      0.29      0.44      Open
  PI3                   4.90      0.16      0.14      Open
  PI4                   4.90      0.16      0.14      Open
  PI5                   4.90      0.16      0.14      Open
  PI6                  -5.58      0.18      0.18      Open
  PI7                  -5.58      0.18      0.18      Open
  PI8                  -8.03      0.26      0.35      Open
  PI9                   2.46      0.08      0.04      Open
  PU2                  36.76      0.00    -42.07      Open Pump
  PU3                   0.00      0.00      0.00    Closed Pump
  


  Page 13                                                Example network
  Node Results at 11:00 Hrs:
  ----------------------------------------------------------------------
  Node                Demand      Head  Pressure   Quality
  ID                     LPS         m         m          
  ----------------------------------------------------------------------
  1                     0.00     42.31     42.31      0.00
  cripressure_2         0.00     40.87     40.87      0.00
  3                     4.00     41.85     39.85      0.00
  4                     0.00     41.47     41.47      0.00
  5                     0.00     41.45     41.45      0.00
  cripressure_6        12.00     40.82     20.82      0.00
  JU1                   0.00     40.65     40.65      0.00
  JU2                   0.00     40.66     40.66      0.00
  JU3                   4.00     40.61     40.61      0.00
  JU4                   4.00     40.61     40.61      0.00
  JU5                   4.00     40.61     40.61      0.00
  JU6                   0.00     40.68     40.68      0.00
  9                   -36.37      0.00      0.00      0.00 Reservoir
  10                    0.00      0.00      0.00      0.00 Reservoir
  TA2                   8.37     40.54     19.54      0.00 Tank
  
  Link Results at 11:00 Hrs:
  ----------------------------------------------------------------------
  Link                  Flow  VelocityUnit Headloss    Status
  ID                     LPS       m/s      m/km
  ----------------------------------------------------------------------
  1                    16.91      0.54      1.32      Open
  2                    19.46      0.62      1.69      Open
  3                    12.91      0.41      0.81      Open
  4                     2.75      0.09      0.05      Open
  flowmeas_5           16.71      0.53      1.29      Open
  flowmeas_6           15.65      0.50      1.14      Open
  flowmeas_7            5.04      0.16      0.15      Open
  PI2                  -9.76      0.31      0.49      Open
  PI3                   4.00      0.13      0.10      Open
  PI4                   4.00      0.13      0.10      Open
  PI5                   4.00      0.13      0.10      Open
  PI6                  -2.24      0.07      0.04      Open
  PI7                  -2.24      0.07      0.04      Open
  PI8                 -10.61      0.34      0.57      Open
  PI9                   8.37      0.27      0.37      Open
  PU2                  36.37      0.00    -42.31      Open Pump
  PU3                   0.00      0.00      0.00    Closed Pump
  


  Page 14                                                Example network
  Node Results at 12:00 Hrs:
  ----------------------------------------------------------------------
  Node                Demand      Head  Pressure   Quality
  ID                     LPS         m         m          
  ----------------------------------------------------------------------
  1                     0.00     42.25     42.25      0.00
  cripressure_2         0.00     40.83     40.83      0.00
  3                     4.25     41.79     39.79      0.00
  4                     0.00     41.41     41.41      0.00
  5                     0.00     41.39     41.39      0.00
  cripressure_6        12.75     40.76     20.76      0.00
  JU1                   0.00     40.60     40.60      0.00
  JU2                   0.00     40.62     40.62      0.00
  JU3                   4.25     40.56     40.56      0.00
  JU4                   4.25     40.56     40.56      0.00
  JU5                   4.25     40.56     40.56      0.00
  JU6                   0.00     40.65     40.65      0.00
  9                   -36.46      0.00      0.00      0.00 Reservoir
  10                    0.00      0.00      0.00      0.00 Reservoir
  TA2                   6.71     40.56     19.56      0.00 Tank
  
  Link Results at 12:00 Hrs:
  ----------------------------------------------------------------------
  Link                  Flow  VelocityUnit Headloss    Status
  ID                     LPS       m/s      m/km
  ----------------------------------------------------------------------
  1                    17.02      0.54      1.33      Open
  2                    19.44      0.62      1.69      Open
  3                    12.77      0.41      0.80      Open
  4                     2.73      0.09      0.05      Open
  flowmeas_5           16.71      0.53      1.29      Open
  flowmeas_6           15.50      0.49      1.13      Open
  flowmeas_7            5.55      0.18      0.18      Open
  PI2                  -9.51      0.30      0.47      Open
  PI3                   4.25      0.14      0.11      Open
  PI4                   4.25      0.14      0.11      Open
  PI5                   4.25      0.14      0.11      Open
  PI6                  -3.24      0.10      0.07      Open
  PI7                  -3.24      0.10      0.07      Open
  PI8                  -9.96      0.32      0.51      Open
  PI9                   6.71      0.21      0.25      Open
  PU2                  36.46      0.00    -42.25      Open Pump
  PU3                   0.00      0.00      0.00    Closed Pump
  


  Page 15                                                Example network
  Node Results at 13:00 Hrs:
  ----------------------------------------------------------------------
  Node                Demand      Head  Pressure   Quality
  ID                     LPS         m         m          
  ----------------------------------------------------------------------
  1                     0.00     42.29     42.29      0.00
  cripressure_2         0.00     40.86     40.86      0.00
  3                     4.15     41.83     39.83      0.00
  4                     0.00     41.45     41.45      0.00
  5                     0.00     41.43     41.43      0.00
  cripressure_6        12.45     40.80     20.80      0.00
  JU1                   0.00     40.64     40.64      0.00
  JU2                   0.00     40.66     40.66      0.00
  JU3                   4.15     40.60     40.60      0.00
  JU4                   4.15     40.60     40.60      0.00
  JU5                   4.15     40.60     40.60      0.00
  JU6                   0.00     40.68     40.68      0.00
  9                   -36.40      0.00      0.00      0.00 Reservoir
  10                    0.00      0.00      0.00      0.00 Reservoir
  TA2                   7.35     40.57     19.57      0.00 Tank
  
  Link Results at 13:00 Hrs:
  ----------------------------------------------------------------------
  Link                  Flow  VelocityUnit Headloss    Status
  ID                     LPS       m/s      m/km
  ----------------------------------------------------------------------
  1                    16.97      0.54      1.32      Open
  2                    19.43      0.62      1.69      Open
  3                    12.82      0.41      0.80      Open
  4                     2.73      0.09      0.05      Open
  flowmeas_5           16.70      0.53      1.29      Open
  flowmeas_6           15.55      0.50      1.13      Open
  flowmeas_7            5.34      0.17      0.17      Open
  PI2                  -9.59      0.31      0.48      Open
  PI3                   4.15      0.13      0.11      Open
  PI4                   4.15      0.13      0.11      Open
  PI5                   4.15      0.13      0.11      Open
  PI6                  -2.86      0.09      0.06      Open
  PI7                  -2.86      0.09      0.06      Open
  PI8                 -10.21      0.32      0.53      Open
  PI9                   7.35      0.23      0.30      Open
  PU2                  36.40      0.00    -42.29      Open Pump
  PU3                   0.00      0.00      0.00    Closed Pump
  


  Page 16                                                Example network
  Node Results at 14:00 Hrs:
  ----------------------------------------------------------------------
  Node                Demand      Head  Pressure   Quality
  ID                     LPS         m         m          
  ----------------------------------------------------------------------
  1                     0.00     42.35     42.35      0.00
  cripressure_2         0.00     40.91     40.91      0.00
  3                     4.00     41.89     39.89      0.00
  4                     0.00     41.50     41.50      0.00
  5                     0.00     41.48     41.48      0.00
  cripressure_6        12.00     40.86     20.86      0.00
  JU1                   0.00     40.69     40.69      0.00
  JU2                   0.00     40.70     40.70      0.00
  JU3                   4.00     40.65     40.65      0.00
  JU4                   4.00     40.65     40.65      0.00
  JU5                   4.00     40.65     40.65      0.00
  JU6                   0.00     40.72     40.72      0.00
  9                   -36.31      0.00      0.00      0.00 Reservoir
  10                    0.00      0.00      0.00      0.00 Reservoir
  TA2                   8.31     40.59     19.59      0.00 Tank
  
  Link Results at 14:00 Hrs:
  ----------------------------------------------------------------------
  Link                  Flow  VelocityUnit Headloss    Status
  ID                     LPS       m/s      m/km
  ----------------------------------------------------------------------
  1                    16.88      0.54      1.31      Open
  2                    19.43      0.62      1.69      Open
  3                    12.88      0.41      0.81      Open
  4                     2.74      0.09      0.05      Open
  flowmeas_5           16.69      0.53      1.28      Open
  flowmeas_6           15.62      0.50      1.14      Open
  flowmeas_7            5.05      0.16      0.15      Open
  PI2                  -9.73      0.31      0.49      Open
  PI3                   4.00      0.13      0.10      Open
  PI4                   4.00      0.13      0.10      Open
  PI5                   4.00      0.13      0.10      Open
  PI6                  -2.27      0.07      0.04      Open
  PI7                  -2.27      0.07      0.04      Open
  PI8                 -10.58      0.34      0.57      Open
  PI9                   8.31      0.26      0.37      Open
  PU2                  36.31      0.00    -42.35      Open Pump
  PU3                   0.00      0.00      0.00    Closed Pump
  


  Page 17                                                Example network
  Node Results at 15:00 Hrs:
  ----------------------------------------------------------------------
  Node                Demand      Head  Pressure   Quality
  ID                     LPS         m         m          
  ----------------------------------------------------------------------
  1                     0.00     41.90     41.90      0.00
  cripressure_2         0.00     40.58     40.58      0.00
  3                     6.00     41.40     39.40      0.00
  4                     0.00     41.07     41.07      0.00
  5                     0.00     41.06     41.06      0.00
  cripressure_6        18.00     40.40     20.40      0.00
  JU1                   0.00     40.25     40.25      0.00
  JU2                   0.00     40.40     40.40      0.00
  JU3                   6.00     40.18     40.18      0.00
  JU4                   6.00     40.18     40.18      0.00
  JU5                   6.00     40.18     40.18      0.00
  JU6                   0.00     40.55     40.55      0.00
  9                   -37.04      0.00      0.00      0.00 Reservoir
  10                    0.00      0.00      0.00      0.00 Reservoir
  TA2                  -4.96     40.60     19.60      0.00 Tank
  
  Link Results at 15:00 Hrs:
  ----------------------------------------------------------------------
  Link                  Flow  VelocityUnit Headloss    Status
  ID                     LPS       m/s      m/km
  ----------------------------------------------------------------------
  1                    17.76      0.57      1.44      Open
  2                    19.28      0.61      1.67      Open
  3                    11.76      0.37      0.69      Open
  4                     2.27      0.07      0.04      Open
  flowmeas_5           17.00      0.54      1.33      Open
  flowmeas_6           14.03      0.45      0.94      Open
  flowmeas_7           10.03      0.32      0.52      Open
  PI2                  -9.04      0.29      0.43      Open
  PI3                   6.00      0.19      0.21      Open
  PI4                   6.00      0.19      0.21      Open
  PI5                   6.00      0.19      0.21      Open
  PI6                  -8.96      0.29      0.42      Open
  PI7                  -8.96      0.29      0.42      Open
  PI8                  -4.00      0.13      0.10      Open
  PI9                  -4.96      0.16      0.15      Open
  PU2                  37.04      0.00    -41.90      Open Pump
  PU3                   0.00      0.00      0.00    Closed Pump
  


  Page 18                                                Example network
  Node Results at 16:00 Hrs:
  ----------------------------------------------------------------------
  Node                Demand      Head  Pressure   Quality
  ID                     LPS         m         m          
  ----------------------------------------------------------------------
  1                     0.00     41.44     41.44      0.00
  cripressure_2         0.00     40.22     40.22      0.00
  3                     7.50     40.90     38.90      0.00
  4                     0.00     40.60     40.60      0.00
  5                     0.00     40.60     40.60      0.00
  cripressure_6        22.50     39.87     19.87      0.00
  JU1                   0.00     39.69     39.69      0.00
  JU2                   0.00     39.96     39.96      0.00
  JU3                   7.50     39.59     39.59      0.00
  JU4                   7.50     39.59     39.59      0.00
  JU5                   7.50     39.59     39.59      0.00
  JU6                   0.00     40.23     40.23      0.00
  9                   -37.78      0.00      0.00      0.00 Reservoir
  10                    0.00      0.00      0.00      0.00 Reservoir
  TA2                 -14.72     40.59     19.59      0.00 Tank
  
  Link Results at 16:00 Hrs:
  ----------------------------------------------------------------------
  Link                  Flow  VelocityUnit Headloss    Status
  ID                     LPS       m/s      m/km
  ----------------------------------------------------------------------
  1                    18.46      0.59      1.54      Open
  2                    19.32      0.61      1.67      Open
  3                    10.96      0.35      0.60      Open
  4                     1.40      0.04      0.02      Open
  flowmeas_5           17.92      0.57      1.46      Open
  flowmeas_6           12.36      0.39      0.75      Open
  flowmeas_7           14.52      0.46      1.00      Open
  PI2                  -9.94      0.32      0.51      Open
  PI3                   7.50      0.24      0.31      Open
  PI4                   7.50      0.24      0.31      Open
  PI5                   7.50      0.24      0.31      Open
  PI6                 -12.56      0.40      0.77      Open
  PI7                 -12.56      0.40      0.77      Open
  PI8                   2.16      0.07      0.03      Open
  PI9                 -14.72      0.47      1.03      Open
  PU2                  37.78      0.00    -41.44      Open Pump
  PU3                   0.00      0.00      0.00    Closed Pump
  


  Page 19                                                Example network
  Node Results at 17:00 Hrs:
  ----------------------------------------------------------------------
  Node                Demand      Head  Pressure   Quality
  ID                     LPS         m         m          
  ----------------------------------------------------------------------
  1                     0.00     40.85     40.85      0.00
  cripressure_2         0.00     39.70     39.70      0.00
  3                     8.75     40.28     38.28      0.00
  4                     0.00     40.00     40.00      0.00
  5                     0.00     40.00     40.00      0.00
  cripressure_6        26.25     39.19     19.19      0.00
  JU1                   0.00     38.99     38.99      0.00
  JU2                   0.00     39.39     39.39      0.00
  JU3                   8.75     38.85     38.85      0.00
  JU4                   8.75     38.85     38.85      0.00
  JU5                   8.75     38.85     38.85      0.00
  JU6                   0.00     39.79     39.79      0.00
  9                   -38.70      0.00      0.00      0.00 Reservoir
  10                    0.00      0.00      0.00      0.00 Reservoir
  TA2                 -22.55     40.57     19.57      0.00 Tank
  
  Link Results at 17:00 Hrs:
  ----------------------------------------------------------------------
  Link                  Flow  VelocityUnit Headloss    Status
  ID                     LPS       m/s      m/km
  ----------------------------------------------------------------------
  1                    19.17      0.61      1.65      Open
  2                    19.53      0.62      1.70      Open
  3                    10.42      0.33      0.55      Open
  4                     0.53      0.02      0.00      Open
  flowmeas_5           18.99      0.60      1.62      Open
  flowmeas_6           10.95      0.35      0.60      Open
  flowmeas_7           17.86      0.57      1.45      Open
  PI2                 -10.61      0.34      0.57      Open
  PI3                   8.75      0.28      0.40      Open
  PI4                   8.75      0.28      0.40      Open
  PI5                   8.75      0.28      0.40      Open
  PI6                 -15.64      0.50      1.14      Open
  PI7                 -15.64      0.50      1.14      Open
  PI8                   6.91      0.22      0.27      Open
  PI9                 -22.55      0.72      2.21      Open
  PU2                  38.70      0.00    -40.85      Open Pump
  PU3                   0.00      0.00      0.00    Closed Pump
  


  Page 20                                                Example network
  Node Results at 18:00 Hrs:
  ----------------------------------------------------------------------
  Node                Demand      Head  Pressure   Quality
  ID                     LPS         m         m          
  ----------------------------------------------------------------------
  1                     0.00     41.18     41.18      0.00
  cripressure_2         0.00     39.98     39.98      0.00
  3                     8.00     40.62     38.62      0.00
  4                     0.00     40.33     40.33      0.00
  5                     0.00     40.33     40.33      0.00
  cripressure_6        24.00     39.57     19.57      0.00
  JU1                   0.00     39.38     39.38      0.00
  JU2                   0.00     39.70     39.70      0.00
  JU3                   8.00     39.26     39.26      0.00
  JU4                   8.00     39.26     39.26      0.00
  JU5                   8.00     39.26     39.26      0.00
  JU6                   0.00     40.02     40.02      0.00
  9                   -38.19      0.00      0.00      0.00 Reservoir
  10                    0.00      0.00      0.00      0.00 Reservoir
  TA2                 -17.81     40.52     19.52      0.00 Tank
  
  Link Results at 18:00 Hrs:
  ----------------------------------------------------------------------
  Link                  Flow  VelocityUnit Headloss    Status
  ID                     LPS       m/s      m/km
  ----------------------------------------------------------------------
  1                    18.77      0.60      1.59      Open
  2                    19.43      0.62      1.69      Open
  3                    10.77      0.34      0.59      Open
  4                     1.07      0.03      0.01      Open
  flowmeas_5           18.35      0.58      1.52      Open
  flowmeas_6           11.84      0.38      0.69      Open
  flowmeas_7           15.89      0.51      1.18      Open
  PI2                 -10.25      0.33      0.54      Open
  PI3                   8.00      0.25      0.34      Open
  PI4                   8.00      0.25      0.34      Open
  PI5                   8.00      0.25      0.34      Open
  PI6                 -13.75      0.44      0.91      Open
  PI7                 -13.75      0.44      0.91      Open
  PI8                   4.05      0.13      0.10      Open
  PI9                 -17.81      0.57      1.44      Open
  PU2                  38.19      0.00    -41.18      Open Pump
  PU3                   0.00      0.00      0.00    Closed Pump
  


  Page 21                                                Example network
  Node Results at 19:00 Hrs:
  ----------------------------------------------------------------------
  Node                Demand      Head  Pressure   Quality
  ID                     LPS         m         m          
  ----------------------------------------------------------------------
  1                     0.00     41.81     41.81      0.00
  cripressure_2         0.00     40.48     40.48      0.00
  3                     6.00     41.30     39.30      0.00
  4                     0.00     40.97     40.97      0.00
  5                     0.00     40.96     40.96      0.00
  cripressure_6        18.00     40.30     20.30      0.00
  JU1                   0.00     40.15     40.15      0.00
  JU2                   0.00     40.30     40.30      0.00
  JU3                   6.00     40.08     40.08      0.00
  JU4                   6.00     40.08     40.08      0.00
  JU5                   6.00     40.08     40.08      0.00
  JU6                   0.00     40.44     40.44      0.00
  9                   -37.19      0.00      0.00      0.00 Reservoir
  10                    0.00      0.00      0.00      0.00 Reservoir
  TA2                  -4.81     40.49     19.49      0.00 Tank
  
  Link Results at 19:00 Hrs:
  ----------------------------------------------------------------------
  Link                  Flow  VelocityUnit Headloss    Status
  ID                     LPS       m/s      m/km
  ----------------------------------------------------------------------
  1                    17.83      0.57      1.45      Open
  2                    19.36      0.62      1.68      Open
  3                    11.83      0.38      0.69      Open
  4                     2.29      0.07      0.04      Open
  flowmeas_5           17.07      0.54      1.34      Open
  flowmeas_6           14.12      0.45      0.95      Open
  flowmeas_7           10.00      0.32      0.51      Open
  PI2                  -9.07      0.29      0.43      Open
  PI3                   6.00      0.19      0.21      Open
  PI4                   6.00      0.19      0.21      Open
  PI5                   6.00      0.19      0.21      Open
  PI6                  -8.93      0.28      0.42      Open
  PI7                  -8.93      0.28      0.42      Open
  PI8                  -4.12      0.13      0.11      Open
  PI9                  -4.81      0.15      0.14      Open
  PU2                  37.19      0.00    -41.81      Open Pump
  PU3                   0.00      0.00      0.00    Closed Pump
  


  Page 22                                                Example network
  Node Results at 20:00 Hrs:
  ----------------------------------------------------------------------
  Node                Demand      Head  Pressure   Quality
  ID                     LPS         m         m          
  ----------------------------------------------------------------------
  1                     0.00     41.91     41.91      0.00
  cripressure_2         0.00     40.55     40.55      0.00
  3                     5.50     41.42     39.42      0.00
  4                     0.00     41.07     41.07      0.00
  5                     0.00     41.05     41.05      0.00
  cripressure_6        16.50     40.41     20.41      0.00
  JU1                   0.00     40.26     40.26      0.00
  JU2                   0.00     40.37     40.37      0.00
  JU3                   5.50     40.20     40.20      0.00
  JU4                   5.50     40.20     40.20      0.00
  JU5                   5.50     40.20     40.20      0.00
  JU6                   0.00     40.48     40.48      0.00
  9                   -37.02      0.00      0.00      0.00 Reservoir
  10                    0.00      0.00      0.00      0.00 Reservoir
  TA2                  -1.48     40.48     19.48      0.00 Tank
  
  Link Results at 20:00 Hrs:
  ----------------------------------------------------------------------
  Link                  Flow  VelocityUnit Headloss    Status
  ID                     LPS       m/s      m/km
  ----------------------------------------------------------------------
  1                    17.62      0.56      1.42      Open
  2                    19.40      0.62      1.68      Open
  3                    12.12      0.39      0.72      Open
  4                     2.48      0.08      0.04      Open
  flowmeas_5           16.92      0.54      1.32      Open
  flowmeas_6           14.61      0.46      1.01      Open
  flowmeas_7            8.60      0.27      0.39      Open
  PI2                  -9.02      0.29      0.43      Open
  PI3                   5.50      0.18      0.18      Open
  PI4                   5.50      0.18      0.18      Open
  PI5                   5.50      0.18      0.18      Open
  PI6                  -7.48      0.24      0.31      Open
  PI7                  -7.48      0.24      0.31      Open
  PI8                  -6.00      0.19      0.21      Open
  PI9                  -1.48      0.05      0.02      Open
  PU2                  37.02      0.00    -41.91      Open Pump
  PU3                   0.00      0.00      0.00    Closed Pump
  


  Page 23                                                Example network
  Node Results at 21:00 Hrs:
  ----------------------------------------------------------------------
  Node                Demand      Head  Pressure   Quality
  ID                     LPS         m         m          
  ----------------------------------------------------------------------
  1                     0.00     42.50     42.50      0.00
  cripressure_2         0.00     41.03     41.03      0.00
  3                     3.25     42.06     40.06      0.00
  4                     0.00     41.65     41.65      0.00
  5                     0.00     41.63     41.63      0.00
  cripressure_6         9.75     41.00     21.00      0.00
  JU1                   0.00     40.79     40.79      0.00
  JU2                   0.00     40.78     40.78      0.00
  JU3                   3.25     40.76     40.76      0.00
  JU4                   3.25     40.76     40.76      0.00
  JU5                   3.25     40.76     40.76      0.00
  JU6                   0.00     40.78     40.78      0.00
  9                   -36.06      0.00      0.00      0.00 Reservoir
  10                    0.00      0.00      0.00      0.00 Reservoir
  TA2                  13.31     40.48     19.48      0.00 Tank
  
  Link Results at 21:00 Hrs:
  ----------------------------------------------------------------------
  Link                  Flow  VelocityUnit Headloss    Status
  ID                     LPS       m/s      m/km
  ----------------------------------------------------------------------
  1                    16.54      0.53      1.26      Open
  2                    19.51      0.62      1.70      Open
  3                    13.29      0.42      0.85      Open
  4                     2.73      0.09      0.05      Open
  flowmeas_5           16.78      0.53      1.30      Open
  flowmeas_6           16.02      0.51      1.19      Open
  flowmeas_7            3.90      0.12      0.10      Open
  PI2                 -10.93      0.35      0.60      Open
  PI3                   3.25      0.10      0.07      Open
  PI4                   3.25      0.10      0.07      Open
  PI5                   3.25      0.10      0.07      Open
  PI6                   1.18      0.04      0.01      Open
  PI7                   1.18      0.04      0.01      Open
  PI8                 -12.12      0.39      0.72      Open
  PI9                  13.31      0.42      0.86      Open
  PU2                  36.06      0.00    -42.50      Open Pump
  PU3                   0.00      0.00      0.00    Closed Pump
  


  Page 24                                                Example network
  Node Results at 22:00 Hrs:
  ----------------------------------------------------------------------
  Node                Demand      Head  Pressure   Quality
  ID                     LPS         m         m          
  ----------------------------------------------------------------------
  1                     0.00     44.58     44.58      0.00
  cripressure_2         0.00     43.36     43.36      0.00
  3                     2.05     44.23     42.23      0.00
  4                     0.00     43.86     43.86      0.00
  5                     0.00     43.85     43.85      0.00
  cripressure_6         6.15     43.26     23.26      0.00
  JU1                   0.00     42.79     42.79      0.00
  JU2                   0.00     42.58     42.58      0.00
  JU3                   2.05     42.78     42.78      0.00
  JU4                   2.05     42.78     42.78      0.00
  JU5                   2.05     42.78     42.78      0.00
  JU6                   0.00     42.37     42.37      0.00
  9                   -32.40      0.00      0.00      0.00 Reservoir
  10                  -18.63      0.00      0.00      0.00 Reservoir
  TA2                  36.69     40.50     19.50      0.00 Tank
  
  Link Results at 22:00 Hrs:
  ----------------------------------------------------------------------
  Link                  Flow  VelocityUnit Headloss    Status
  ID                     LPS       m/s      m/km
  ----------------------------------------------------------------------
  1                    14.55      0.46      1.00      Open
  2                    17.85      0.57      1.45      Open
  3                    12.50      0.40      0.77      Open
  4                     1.83      0.06      0.03      Open
  flowmeas_5           16.02      0.51      1.19      Open
  flowmeas_6           14.33      0.46      0.98      Open
  flowmeas_7            7.18      0.23      0.28      Open
  PI2                 -17.05      0.54      1.34      Open
  PI3                   2.05      0.07      0.03      Open
  PI4                   2.05      0.07      0.03      Open
  PI5                   2.05      0.07      0.03      Open
  PI6                  10.90      0.35      0.60      Open
  PI7                  10.90      0.35      0.60      Open
  PI8                 -25.79      0.82      2.82      Open
  PI9                  36.69      1.17      5.34      Open
  PU2                  32.40      0.00    -44.58      Open Pump
  PU3                  18.63      0.00    -43.36      Open Pump
  


  Page 25                                                Example network
  Node Results at 23:00 Hrs:
  ----------------------------------------------------------------------
  Node                Demand      Head  Pressure   Quality
  ID                     LPS         m         m          
  ----------------------------------------------------------------------
  1                     0.00     44.98     44.98      0.00
  cripressure_2         0.00     43.75     43.75      0.00
  3                     1.40     44.65     42.65      0.00
  4                     0.00     44.27     44.27      0.00
  5                     0.00     44.26     44.26      0.00
  cripressure_6         4.20     43.69     23.69      0.00
  JU1                   0.00     43.24     43.24      0.00
  JU2                   0.00     42.97     42.97      0.00
  JU3                   1.40     43.23     43.23      0.00
  JU4                   1.40     43.23     43.23      0.00
  JU5                   1.40     43.23     43.23      0.00
  JU6                   0.00     42.70     42.70      0.00
  9                   -31.67      0.00      0.00      0.00 Reservoir
  10                  -17.49      0.00      0.00      0.00 Reservoir
  TA2                  39.36     40.57     19.57      0.00 Tank
  
  Link Results at 23:00 Hrs:
  ----------------------------------------------------------------------
  Link                  Flow  VelocityUnit Headloss    Status
  ID                     LPS       m/s      m/km
  ----------------------------------------------------------------------
  1                    14.04      0.45      0.94      Open
  2                    17.63      0.56      1.42      Open
  3                    12.64      0.40      0.78      Open
  4                     1.96      0.06      0.03      Open
  flowmeas_5           15.67      0.50      1.15      Open
  flowmeas_6           14.60      0.46      1.01      Open
  flowmeas_7            5.32      0.17      0.17      Open
  PI2                 -16.79      0.53      1.30      Open
  PI3                   1.40      0.04      0.02      Open
  PI4                   1.40      0.04      0.02      Open
  PI5                   1.40      0.04      0.02      Open
  PI6                  12.59      0.40      0.77      Open
  PI7                  12.59      0.40      0.77      Open
  PI8                 -26.77      0.85      3.02      Open
  PI9                  39.36      1.25      6.07      Open
  PU2                  31.67      0.00    -44.98      Open Pump
  PU3                  17.49      0.00    -43.75      Open Pump
  


  Page 26                                                Example network
  Node Results at 24:00 Hrs:
  ----------------------------------------------------------------------
  Node                Demand      Head  Pressure   Quality
  ID                     LPS         m         m          
  ----------------------------------------------------------------------
  1                     0.00     44.66     44.66      0.00
  cripressure_2         0.00     43.45     43.45      0.00
  3                     2.05     44.31     42.31      0.00
  4                     0.00     43.94     43.94      0.00
  5                     0.00     43.93     43.93      0.00
  cripressure_6         6.15     43.35     23.35      0.00
  JU1                   0.00     42.89     42.89      0.00
  JU2                   0.00     42.68     42.68      0.00
  JU3                   2.05     42.88     42.88      0.00
  JU4                   2.05     42.88     42.88      0.00
  JU5                   2.05     42.88     42.88      0.00
  JU6                   0.00     42.48     42.48      0.00
  9                   -32.26      0.00      0.00      0.00 Reservoir
  10                  -18.39      0.00      0.00      0.00 Reservoir
  TA2                  36.30     40.64     19.64      0.00 Tank
  
  Link Results at 24:00 Hrs:
  ----------------------------------------------------------------------
  Link                  Flow  VelocityUnit Headloss    Status
  ID                     LPS       m/s      m/km
  ----------------------------------------------------------------------
  1                    14.49      0.46      1.00      Open
  2                    17.77      0.57      1.44      Open
  3                    12.44      0.40      0.76      Open
  4                     1.82      0.06      0.03      Open
  flowmeas_5           15.95      0.51      1.18      Open
  flowmeas_6           14.27      0.45      0.97      Open
  flowmeas_7            7.12      0.23      0.28      Open
  PI2                 -16.92      0.54      1.32      Open
  PI3                   2.05      0.07      0.03      Open
  PI4                   2.05      0.07      0.03      Open
  PI5                   2.05      0.07      0.03      Open
  PI6                  10.77      0.34      0.59      Open
  PI7                  10.77      0.34      0.59      Open
  PI8                 -25.53      0.81      2.77      Open
  PI9                  36.30      1.16      5.24      Open
  PU2                  32.26      0.00    -44.66      Open Pump
  PU3                  18.39      0.00    -43.45      Open Pump
  


  Page 27                                                Example network
  Node Results at 25:00 Hrs:
  ----------------------------------------------------------------------
  Node                Demand      Head  Pressure   Quality
  ID                     LPS         m         m          
  ----------------------------------------------------------------------
  1                     0.00     45.05     45.05      0.00
  cripressure_2         0.00     43.83     43.83      0.00
  3                     1.40     44.72     42.72      0.00
  4                     0.00     44.35     44.35      0.00
  5                     0.00     44.34     44.34      0.00
  cripressure_6         4.20     43.78     23.78      0.00
  JU1                   0.00     43.33     43.33      0.00
  JU2                   0.00     43.06     43.06      0.00
  JU3                   1.40     43.32     43.32      0.00
  JU4                   1.40     43.32     43.32      0.00
  JU5                   1.40     43.32     43.32      0.00
  JU6                   0.00     42.80     42.80      0.00
  9                   -31.53      0.00      0.00      0.00 Reservoir
  10                  -17.24      0.00      0.00      0.00 Reservoir
  TA2                  38.97     40.71     19.71      0.00 Tank
  
  Link Results at 25:00 Hrs:
  ----------------------------------------------------------------------
  Link                  Flow  VelocityUnit Headloss    Status
  ID                     LPS       m/s      m/km
  ----------------------------------------------------------------------
  1                    13.98      0.44      0.93      Open
  2                    17.55      0.56      1.41      Open
  3                    12.58      0.40      0.77      Open
  4                     1.96      0.06      0.03      Open
  flowmeas_5           15.59      0.50      1.14      Open
  flowmeas_6           14.53      0.46      1.00      Open
  flowmeas_7            5.26      0.17      0.16      Open
  PI2                 -16.65      0.53      1.28      Open
  PI3                   1.40      0.04      0.02      Open
  PI4                   1.40      0.04      0.02      Open
  PI5                   1.40      0.04      0.02      Open
  PI6                  12.45      0.40      0.76      Open
  PI7                  12.45      0.40      0.76      Open
  PI8                 -26.52      0.84      2.96      Open
  PI9                  38.97      1.24      5.96      Open
  PU2                  31.53      0.00    -45.05      Open Pump
  PU3                  17.24      0.00    -43.83      Open Pump
  


  Page 28                                                Example network
  Node Results at 26:00 Hrs:
  ----------------------------------------------------------------------
  Node                Demand      Head  Pressure   Quality
  ID                     LPS         m         m          
  ----------------------------------------------------------------------
  1                     0.00     45.17     45.17      0.00
  cripressure_2         0.00     43.96     43.96      0.00
  3                     1.25     44.85     42.85      0.00
  4                     0.00     44.47     44.47      0.00
  5                     0.00     44.46     44.46      0.00
  cripressure_6         3.75     43.91     23.91      0.00
  JU1                   0.00     43.47     43.47      0.00
  JU2                   0.00     43.19     43.19      0.00
  JU3                   1.25     43.46     43.46      0.00
  JU4                   1.25     43.46     43.46      0.00
  JU5                   1.25     43.46     43.46      0.00
  JU6                   0.00     42.91     42.91      0.00
  9                   -31.30      0.00      0.00      0.00 Reservoir
  10                  -16.86      0.00      0.00      0.00 Reservoir
  TA2                  39.41     40.78     19.78      0.00 Tank
  
  Link Results at 26:00 Hrs:
  ----------------------------------------------------------------------
  Link                  Flow  VelocityUnit Headloss    Status
  ID                     LPS       m/s      m/km
  ----------------------------------------------------------------------
  1                    13.83      0.44      0.92      Open
  2                    17.47      0.56      1.39      Open
  3                    12.58      0.40      0.77      Open
  4                     1.98      0.06      0.03      Open
  flowmeas_5           15.49      0.49      1.12      Open
  flowmeas_6           14.56      0.46      1.01      Open
  flowmeas_7            4.78      0.15      0.14      Open
  PI2                 -16.52      0.53      1.26      Open
  PI3                   1.25      0.04      0.01      Open
  PI4                   1.25      0.04      0.01      Open
  PI5                   1.25      0.04      0.01      Open
  PI6                  12.77      0.41      0.79      Open
  PI7                  12.77      0.41      0.79      Open
  PI8                 -26.64      0.85      2.99      Open
  PI9                  39.41      1.25      6.09      Open
  PU2                  31.30      0.00    -45.17      Open Pump
  PU3                  16.86      0.00    -43.96      Open Pump
  


  Page 29                                                Example network
  Node Results at 27:00 Hrs:
  ----------------------------------------------------------------------
  Node                Demand      Head  Pressure   Quality
  ID                     LPS         m         m          
  ----------------------------------------------------------------------
  1                     0.00     40.63     40.63      0.00
  cripressure_2         0.00     40.64     40.64      0.00
  3                     1.30     40.63     38.63      0.00
  4                     0.00     40.63     40.63      0.00
  5                     0.00     40.63     40.63      0.00
  cripressure_6         3.90     40.62     20.62      0.00
  JU1                   0.00     40.62     40.62      0.00
  JU2                   0.00     40.66     40.66      0.00
  JU3                   1.30     40.62     40.62      0.00
  JU4                   1.30     40.62     40.62      0.00
  JU5                   1.30     40.62     40.62      0.00
  JU6                   0.00     40.70     40.70      0.00
  9                     0.00      0.00      0.00      0.00 Reservoir
  10                    0.00      0.00      0.00      0.00 Reservoir
  TA2                  -9.10     40.85     19.85      0.00 Tank
  
  Link Results at 27:00 Hrs:
  ----------------------------------------------------------------------
  Link                  Flow  VelocityUnit Headloss    Status
  ID                     LPS       m/s      m/km
  ----------------------------------------------------------------------
  1                     0.34      0.01      0.00      Open
  2                    -0.34      0.01      0.00      Open
  3                    -0.96      0.03      0.01      Open
  4                    -1.05      0.03      0.01      Open
  flowmeas_5            0.71      0.02      0.01      Open
  flowmeas_6           -2.01      0.06      0.03      Open
  flowmeas_7            2.99      0.10      0.06      Open
  PI2                   0.19      0.01      0.00      Open
  PI3                   1.30      0.04      0.01      Open
  PI4                   1.30      0.04      0.01      Open
  PI5                   1.30      0.04      0.01      Open
  PI6                  -4.09      0.13      0.11      Open
  PI7                  -4.09      0.13      0.11      Open
  PI8                   5.01      0.16      0.15      Open
  PI9                  -9.10      0.29      0.43      Open
  PU2                   0.00      0.00      0.00    Closed Pump
  PU3                   0.00      0.00      0.00    Closed Pump
  


  Page 30                                                Example network
  Node Results at 28:00 Hrs:
  ----------------------------------------------------------------------
  Node                Demand      Head  Pressure   Quality
  ID                     LPS         m         m          
  ----------------------------------------------------------------------
  1                     0.00     40.69     40.69      0.00
  cripressure_2         0.00     40.70     40.70      0.00
  3                     1.00     40.69     38.69      0.00
  4                     0.00     40.69     40.69      0.00
  5                     0.00     40.69     40.69      0.00
  cripressure_6         3.00     40.69     20.69      0.00
  JU1                   0.00     40.69     40.69      0.00
  JU2                   0.00     40.71     40.71      0.00
  JU3                   1.00     40.69     40.69      0.00
  JU4                   1.00     40.69     40.69      0.00
  JU5                   1.00     40.69     40.69      0.00
  JU6                   0.00     40.74     40.74      0.00
  9                     0.00      0.00      0.00      0.00 Reservoir
  10                    0.00      0.00      0.00      0.00 Reservoir
  TA2                  -7.00     40.83     19.83      0.00 Tank
  
  Link Results at 28:00 Hrs:
  ----------------------------------------------------------------------
  Link                  Flow  VelocityUnit Headloss    Status
  ID                     LPS       m/s      m/km
  ----------------------------------------------------------------------
  1                     0.25      0.01      0.00      Open
  2                    -0.25      0.01      0.00      Open
  3                    -0.75      0.02      0.01      Open
  4                    -0.81      0.03      0.01      Open
  flowmeas_5            0.55      0.02      0.00      Open
  flowmeas_6           -1.55      0.05      0.02      Open
  flowmeas_7            2.30      0.07      0.04      Open
  PI2                   0.15      0.00      0.00      Open
  PI3                   1.00      0.03      0.01      Open
  PI4                   1.00      0.03      0.01      Open
  PI5                   1.00      0.03      0.01      Open
  PI6                  -3.15      0.10      0.07      Open
  PI7                  -3.15      0.10      0.07      Open
  PI8                   3.85      0.12      0.09      Open
  PI9                  -7.00      0.22      0.27      Open
  PU2                   0.00      0.00      0.00    Closed Pump
  PU3                   0.00      0.00      0.00    Closed Pump
  


  Page 31                                                Example network
  Node Results at 29:00 Hrs:
  ----------------------------------------------------------------------
  Node                Demand      Head  Pressure   Quality
  ID                     LPS         m         m          
  ----------------------------------------------------------------------
  1                     0.00     39.47     39.47      0.00
  cripressure_2         0.00     39.58     39.58      0.00
  3                     3.55     39.47     37.47      0.00
  4                     0.00     39.47     39.47      0.00
  5                     0.00     39.49     39.49      0.00
  cripressure_6        10.65     39.46     19.46      0.00
  JU1                   0.00     39.46     39.46      0.00
  JU2                   0.00     39.68     39.68      0.00
  JU3                   3.55     39.43     39.43      0.00
  JU4                   3.55     39.43     39.43      0.00
  JU5                   3.55     39.43     39.43      0.00
  JU6                   0.00     39.90     39.90      0.00
  9                     0.00      0.00      0.00      0.00 Reservoir
  10                    0.00      0.00      0.00      0.00 Reservoir
  TA2                 -24.85     40.82     19.82      0.00 Tank
  
  Link Results at 29:00 Hrs:
  ----------------------------------------------------------------------
  Link                  Flow  VelocityUnit Headloss    Status
  ID                     LPS       m/s      m/km
  ----------------------------------------------------------------------
  1                     0.85      0.03      0.01      Open
  2                    -0.85      0.03      0.01      Open
  3                    -2.70      0.09      0.05      Open
  4                    -2.84      0.09      0.06      Open
  flowmeas_5            1.99      0.06      0.03      Open
  flowmeas_6           -5.54      0.18      0.18      Open
  flowmeas_7            8.14      0.26      0.36      Open
  PI2                   0.52      0.02      0.00      Open
  PI3                   3.55      0.11      0.08      Open
  PI4                   3.55      0.11      0.08      Open
[...]
  JU1                   0.00     40.78     40.78      0.00
  JU2                   0.00     40.77     40.77      0.00
  JU3                   3.25     40.75     40.75      0.00
  JU4                   3.25     40.75     40.75      0.00
  JU5                   3.25     40.75     40.75      0.00
  JU6                   0.00     40.77     40.77      0.00
  9                   -36.07      0.00      0.00      0.00 Reservoir
  10                    0.00      0.00      0.00      0.00 Reservoir
  TA2                  13.32     40.47     19.47      0.00 Tank
  
  Link Results at 141:00 Hrs:
  ----------------------------------------------------------------------
  Link                  Flow  VelocityUnit Headloss    Status
  ID                     LPS       m/s      m/km
  ----------------------------------------------------------------------
  1                    16.55      0.53      1.27      Open
  2                    19.52      0.62      1.70      Open
  3                    13.30      0.42      0.85      Open
  4                     2.73      0.09      0.05      Open
  flowmeas_5           16.79      0.53      1.30      Open
  flowmeas_6           16.03      0.51      1.20      Open
  flowmeas_7            3.90      0.12      0.10      Open
  PI2                 -10.94      0.35      0.60      Open
  PI3                   3.25      0.10      0.07      Open
  PI4                   3.25      0.10      0.07      Open
  PI5                   3.25      0.10      0.07      Open
  PI6                   1.19      0.04      0.01      Open
  PI7                   1.19      0.04      0.01      Open
  PI8                 -12.13      0.39      0.72      Open
  PI9                  13.32      0.42      0.86      Open
  PU2                  36.07      0.00    -42.49      Open Pump
  PU3                   0.00      0.00      0.00    Closed Pump
  


  Page 144                                               Example network
  Node Results at 142:00 Hrs:
  ----------------------------------------------------------------------
  Node                Demand      Head  Pressure   Quality
  ID                     LPS         m         m          
  ----------------------------------------------------------------------
  1                     0.00     44.58     44.58      0.00
  cripressure_2         0.00     43.35     43.35      0.00
  3                     2.05     44.23     42.23      0.00
  4                     0.00     43.85     43.85      0.00
  5                     0.00     43.84     43.84      0.00
  cripressure_6         6.15     43.25     23.25      0.00
  JU1                   0.00     42.79     42.79      0.00
  JU2                   0.00     42.58     42.58      0.00
  JU3                   2.05     42.78     42.78      0.00
  JU4                   2.05     42.78     42.78      0.00
  JU5                   2.05     42.78     42.78      0.00
  JU6                   0.00     42.37     42.37      0.00
  9                   -32.42      0.00      0.00      0.00 Reservoir
  10                  -18.65      0.00      0.00      0.00 Reservoir
  TA2                  36.72     40.49     19.49      0.00 Tank
  
  Link Results at 142:00 Hrs:
  ----------------------------------------------------------------------
  Link                  Flow  VelocityUnit Headloss    Status
  ID                     LPS       m/s      m/km
  ----------------------------------------------------------------------
  1                    14.56      0.46      1.01      Open
  2                    17.86      0.57      1.45      Open
  3                    12.51      0.40      0.77      Open
  4                     1.83      0.06      0.03      Open
  flowmeas_5           16.03      0.51      1.20      Open
  flowmeas_6           14.34      0.46      0.98      Open
  flowmeas_7            7.18      0.23      0.28      Open
  PI2                 -17.06      0.54      1.34      Open
  PI3                   2.05      0.07      0.03      Open
  PI4                   2.05      0.07      0.03      Open
  PI5                   2.05      0.07      0.03      Open
  PI6                  10.91      0.35      0.60      Open
  PI7                  10.91      0.35      0.60      Open
  PI8                 -25.80      0.82      2.82      Open
  PI9                  36.72      1.17      5.35      Open
  PU2                  32.42      0.00    -44.58      Open Pump
  PU3                  18.65      0.00    -43.35      Open Pump
  


  Page 145                                               Example network
  Node Results at 143:00 Hrs:
  ----------------------------------------------------------------------
  Node                Demand      Head  Pressure   Quality
  ID                     LPS         m         m          
  ----------------------------------------------------------------------
  1                     0.00     44.97     44.97      0.00
  cripressure_2         0.00     43.75     43.75      0.00
  3                     1.40     44.64     42.64      0.00
  4                     0.00     44.26     44.26      0.00
  5                     0.00     44.25     44.25      0.00
  cripressure_6         4.20     43.69     23.69      0.00
  JU1                   0.00     43.23     43.23      0.00
  JU2                   0.00     42.96     42.96      0.00
  JU3                   1.40     43.23     43.23      0.00
  JU4                   1.40     43.23     43.23      0.00
  JU5                   1.40     43.23     43.23      0.00
  JU6                   0.00     42.69     42.69      0.00
  9                   -31.68      0.00      0.00      0.00 Reservoir
  10                  -17.51      0.00      0.00      0.00 Reservoir
  TA2                  39.39     40.56     19.56      0.00 Tank
  
  Link Results at 143:00 Hrs:
  ----------------------------------------------------------------------
  Link                  Flow  VelocityUnit Headloss    Status
  ID                     LPS       m/s      m/km
  ----------------------------------------------------------------------
  1                    14.04      0.45      0.94      Open
  2                    17.64      0.56      1.42      Open
  3                    12.64      0.40      0.78      Open
  4                     1.96      0.06      0.03      Open
  flowmeas_5           15.68      0.50      1.15      Open
  flowmeas_6           14.60      0.46      1.01      Open
  flowmeas_7            5.32      0.17      0.17      Open
  PI2                 -16.80      0.53      1.30      Open
  PI3                   1.40      0.04      0.02      Open
  PI4                   1.40      0.04      0.02      Open
  PI5                   1.40      0.04      0.02      Open
  PI6                  12.60      0.40      0.78      Open
  PI7                  12.60      0.40      0.78      Open
  PI8                 -26.79      0.85      3.02      Open
  PI9                  39.39      1.25      6.08      Open
  PU2                  31.68      0.00    -44.97      Open Pump
  PU3                  17.51      0.00    -43.75      Open Pump
  


  Page 146                                               Example network
  Node Results at 144:00 Hrs:
  ----------------------------------------------------------------------
  Node                Demand      Head  Pressure   Quality
  ID                     LPS         m         m          
  ----------------------------------------------------------------------
  1                     0.00     44.65     44.65      0.00
  cripressure_2         0.00     43.44     43.44      0.00
  3                     2.05     44.30     42.30      0.00
  4                     0.00     43.93     43.93      0.00
  5                     0.00     43.93     43.93      0.00
  cripressure_6         6.15     43.34     23.34      0.00
  JU1                   0.00     42.88     42.88      0.00
  JU2                   0.00     42.68     42.68      0.00
  JU3                   2.05     42.87     42.87      0.00
  JU4                   2.05     42.87     42.87      0.00
  JU5                   2.05     42.87     42.87      0.00
  JU6                   0.00     42.47     42.47      0.00
  9                   -32.27      0.00      0.00      0.00 Reservoir
  10                  -18.41      0.00      0.00      0.00 Reservoir
  TA2                  36.33     40.63     19.63      0.00 Tank
  
  Link Results at 144:00 Hrs:
  ----------------------------------------------------------------------
  Link                  Flow  VelocityUnit Headloss    Status
  ID                     LPS       m/s      m/km
  ----------------------------------------------------------------------
  1                    14.50      0.46      1.00      Open
  2                    17.78      0.57      1.44      Open
  3                    12.45      0.40      0.76      Open
  4                     1.83      0.06      0.03      Open
  flowmeas_5           15.95      0.51      1.18      Open
  flowmeas_6           14.27      0.45      0.97      Open
  flowmeas_7            7.13      0.23      0.28      Open
  PI2                 -16.93      0.54      1.32      Open
  PI3                   2.05      0.07      0.03      Open
  PI4                   2.05      0.07      0.03      Open
  PI5                   2.05      0.07      0.03      Open
  PI6                  10.78      0.34      0.59      Open
  PI7                  10.78      0.34      0.59      Open
  PI8                 -25.55      0.81      2.77      Open
  PI9                  36.33      1.16      5.25      Open
  PU2                  32.27      0.00    -44.65      Open Pump
  PU3                  18.41      0.00    -43.44      Open Pump
  


  Page 147                                               Example network
  Node Results at 145:00 Hrs:
  ----------------------------------------------------------------------
  Node                Demand      Head  Pressure   Quality
  ID                     LPS         m         m          
  ----------------------------------------------------------------------
  1                     0.00     45.04     45.04      0.00
  cripressure_2         0.00     43.83     43.83      0.00
  3                     1.40     44.72     42.72      0.00
  4                     0.00     44.34     44.34      0.00
  5                     0.00     44.33     44.33      0.00
  cripressure_6         4.20     43.77     23.77      0.00
  JU1                   0.00     43.32     43.32      0.00
  JU2                   0.00     43.06     43.06      0.00
  JU3                   1.40     43.32     43.32      0.00
  JU4                   1.40     43.32     43.32      0.00
  JU5                   1.40     43.32     43.32      0.00
  JU6                   0.00     42.79     42.79      0.00
  9                   -31.54      0.00      0.00      0.00 Reservoir
  10                  -17.26      0.00      0.00      0.00 Reservoir
  TA2                  39.00     40.70     19.70      0.00 Tank
  
  Link Results at 145:00 Hrs:
  ----------------------------------------------------------------------
  Link                  Flow  VelocityUnit Headloss    Status
  ID                     LPS       m/s      m/km
  ----------------------------------------------------------------------
  1                    13.98      0.45      0.93      Open
  2                    17.56      0.56      1.41      Open
  3                    12.58      0.40      0.77      Open
  4                     1.96      0.06      0.03      Open
  flowmeas_5           15.60      0.50      1.14      Open
  flowmeas_6           14.54      0.46      1.00      Open
  flowmeas_7            5.26      0.17      0.16      Open
  PI2                 -16.66      0.53      1.28      Open
  PI3                   1.40      0.04      0.02      Open
  PI4                   1.40      0.04      0.02      Open
  PI5                   1.40      0.04      0.02      Open
  PI6                  12.46      0.40      0.76      Open
  PI7                  12.46      0.40      0.76      Open
  PI8                 -26.54      0.84      2.97      Open
  PI9                  39.00      1.24      5.97      Open
  PU2                  31.54      0.00    -45.04      Open Pump
  PU3                  17.26      0.00    -43.83      Open Pump
  


  Page 148                                               Example network
  Node Results at 146:00 Hrs:
  ----------------------------------------------------------------------
  Node                Demand      Head  Pressure   Quality
  ID                     LPS         m         m          
  ----------------------------------------------------------------------
  1                     0.00     45.16     45.16      0.00
  cripressure_2         0.00     43.95     43.95      0.00
  3                     1.25     44.84     42.84      0.00
  4                     0.00     44.47     44.47      0.00
  5                     0.00     44.46     44.46      0.00
  cripressure_6         3.75     43.90     23.90      0.00
  JU1                   0.00     43.46     43.46      0.00
  JU2                   0.00     43.18     43.18      0.00
  JU3                   1.25     43.46     43.46      0.00
  JU4                   1.25     43.46     43.46      0.00
  JU5                   1.25     43.46     43.46      0.00
  JU6                   0.00     42.90     42.90      0.00
  9                   -31.31      0.00      0.00      0.00 Reservoir
  10                  -16.88      0.00      0.00      0.00 Reservoir
  TA2                  39.44     40.77     19.77      0.00 Tank
  
  Link Results at 146:00 Hrs:
  ----------------------------------------------------------------------
  Link                  Flow  VelocityUnit Headloss    Status
  ID                     LPS       m/s      m/km
  ----------------------------------------------------------------------
  1                    13.84      0.44      0.92      Open
  2                    17.47      0.56      1.40      Open
  3                    12.59      0.40      0.77      Open
  4                     1.98      0.06      0.03      Open
  flowmeas_5           15.49      0.49      1.12      Open
  flowmeas_6           14.57      0.46      1.01      Open
  flowmeas_7            4.79      0.15      0.14      Open
  PI2                 -16.53      0.53      1.26      Open
  PI3                   1.25      0.04      0.01      Open
  PI4                   1.25      0.04      0.01      Open
  PI5                   1.25      0.04      0.01      Open
  PI6                  12.78      0.41      0.80      Open
  PI7                  12.78      0.41      0.80      Open
  PI8                 -26.66      0.85      2.99      Open
  PI9                  39.44      1.26      6.10      Open
  PU2                  31.31      0.00    -45.16      Open Pump
  PU3                  16.88      0.00    -43.95      Open Pump
  


  Page 149                                               Example network
  Node Results at 147:00 Hrs:
  ----------------------------------------------------------------------
  Node                Demand      Head  Pressure   Quality
  ID                     LPS         m         m          
  ----------------------------------------------------------------------
  1                     0.00     45.17     45.17      0.00
  cripressure_2         0.00     43.97     43.97      0.00
  3                     1.30     44.85     42.85      0.00
  4                     0.00     44.48     44.48      0.00
  5                     0.00     44.47     44.47      0.00
  cripressure_6         3.90     43.92     23.92      0.00
  JU1                   0.00     43.48     43.48      0.00
  JU2                   0.00     43.21     43.21      0.00
  JU3                   1.30     43.47     43.47      0.00
  JU4                   1.30     43.47     43.47      0.00
  JU5                   1.30     43.47     43.47      0.00
  JU6                   0.00     42.94     42.94      0.00
  9                   -31.29      0.00      0.00      0.00 Reservoir
  10                  -16.83      0.00      0.00      0.00 Reservoir
  TA2                  39.02     40.84     19.84      0.00 Tank
  
  Link Results at 147:00 Hrs:
  ----------------------------------------------------------------------
  Link                  Flow  VelocityUnit Headloss    Status
  ID                     LPS       m/s      m/km
  ----------------------------------------------------------------------
  1                    13.84      0.44      0.92      Open
  2                    17.45      0.56      1.39      Open
  3                    12.54      0.40      0.77      Open
  4                     1.97      0.06      0.03      Open
  flowmeas_5           15.48      0.49      1.12      Open
  flowmeas_6           14.51      0.46      1.00      Open
  flowmeas_7            4.91      0.16      0.14      Open
  PI2                 -16.48      0.52      1.26      Open
  PI3                   1.30      0.04      0.01      Open
  PI4                   1.30      0.04      0.01      Open
  PI5                   1.30      0.04      0.01      Open
  PI6                  12.58      0.40      0.77      Open
  PI7                  12.58      0.40      0.77      Open
  PI8                 -26.44      0.84      2.95      Open
  PI9                  39.02      1.24      5.98      Open
  PU2                  31.29      0.00    -45.17      Open Pump
  PU3                  16.83      0.00    -43.97      Open Pump
  


  Page 150                                               Example network
  Node Results at 148:00 Hrs:
  ----------------------------------------------------------------------
  Node                Demand      Head  Pressure   Quality
  ID                     LPS         m         m          
  ----------------------------------------------------------------------
  1                     0.00     40.69     40.69      0.00
  cripressure_2         0.00     40.71     40.71      0.00
  3                     1.00     40.69     38.69      0.00
  4                     0.00     40.69     40.69      0.00
  5                     0.00     40.70     40.70      0.00
  cripressure_6         3.00     40.69     20.69      0.00
  JU1                   0.00     40.69     40.69      0.00
  JU2                   0.00     40.72     40.72      0.00
  JU3                   1.00     40.69     40.69      0.00
  JU4                   1.00     40.69     40.69      0.00
  JU5                   1.00     40.69     40.69      0.00
  JU6                   0.00     40.74     40.74      0.00
  9                     0.00      0.00      0.00      0.00 Reservoir
  10                    0.00      0.00      0.00      0.00 Reservoir
  TA2                  -7.00     40.83     19.83      0.00 Tank
  
  Link Results at 148:00 Hrs:
  ----------------------------------------------------------------------
  Link                  Flow  VelocityUnit Headloss    Status
  ID                     LPS       m/s      m/km
  ----------------------------------------------------------------------
  1                     0.25      0.01      0.00      Open
  2                    -0.25      0.01      0.00      Open
  3                    -0.75      0.02      0.01      Open
  4                    -0.81      0.03      0.01      Open
  flowmeas_5            0.55      0.02      0.00      Open
  flowmeas_6           -1.55      0.05      0.02      Open
  flowmeas_7            2.30      0.07      0.04      Open
  PI2                   0.15      0.00      0.00      Open
  PI3                   1.00      0.03      0.01      Open
  PI4                   1.00      0.03      0.01      Open
  PI5                   1.00      0.03      0.01      Open
  PI6                  -3.15      0.10      0.07      Open
  PI7                  -3.15      0.10      0.07      Open
  PI8                   3.85      0.12      0.09      Open
  PI9                  -7.00      0.22      0.27      Open
  PU2                   0.00      0.00      0.00    Closed Pump
  PU3                   0.00      0.00      0.00    Closed Pump
  
