  Page 1                                          2017. 12. 09. 13:15:32
  **********************************************************************
  *                             E P A N E T                            *
  *                     Hydraulic and Water Quality                    *
  *                     Analysis for Pipe Networks                     *
  *                           Version 2.0                              *
  **********************************************************************
  
  Input File: example1.net
  
  Example network
  The tank is included only because without it. the wireing in the .inp file 
  didn't appear. If the tank is present. it is possible to define negative demand
  nodes as pump inputs. 
  
  Link - Node Table:
  ----------------------------------------------------------------------
  Link           Start          End                Length  Diameter
  ID             Node           Node                    m        mm
  ----------------------------------------------------------------------
  1              1              3                     350       200
  2              1              4                     500       200
  3              3              5                     500       200
  4              4              5                     350       200
  flowmeas_5     4              cripressure_6         500       200
  flowmeas_6     5              cripressure_2         500       200
  flowmeas_7     cripressure_2  cripressure_6         350       200
  PI2            JU1            cripressure_6         350       200
  PI3            JU1            JU3                   350       200
  PI4            JU1            JU4                   350       200
  PI5            JU1            JU5                   350       200
  PI6            JU1            JU2                   350       200
  PI7            JU2            JU6                   350       200
  PI8            JU6            cripressure_2         350       200
  PI9            JU6            TA2                   350       200
  PU2            9              1                    #N/A      #N/A Pump
  PU3            10             cripressure_2        #N/A      #N/A Pump
  
  Energy Usage:
  ----------------------------------------------------------------------
                    Usage   Avg.     Kw-hr      Avg.      Peak      Cost
  Pump             Factor Effic.     /m3        Kw        Kw      /day
  ----------------------------------------------------------------------
  PU2               43.89  75.00      0.16     19.27     20.33      0.00
  PU3               26.08  75.00      0.16     10.33     11.77      0.00
  ----------------------------------------------------------------------
                                                Demand Charge:      0.00
                                                Total Cost:         0.00
  


  Page 2                                                 Example network
  Node Results at 0:00 Hrs:
  ----------------------------------------------------------------------
  Node                Demand      Head  Pressure   Quality
  ID                     LPS         m         m          
  ----------------------------------------------------------------------
  1                     0.00     45.06     45.06      0.00
  cripressure_2         0.00     43.87     43.87      0.00
  3                     2.05     44.72     42.72      0.00
  4                     0.00     44.37     44.37      0.00
  5                     0.00     44.36     44.36      0.00
  cripressure_6         0.00     43.84     23.84      0.00
  JU1                   0.00     43.28     43.28      0.00
  JU2                   0.00     43.01     43.01      0.00
  JU3                   2.05     43.27     43.27      0.00
  JU4                   2.05     43.27     43.27      0.00
  JU5                   2.05     43.27     43.27      0.00
  JU6                   0.00     42.73     42.73      0.00
  9                   -31.51      0.00      0.00      0.00 Reservoir
  10                  -17.15      0.00      0.00      0.00 Reservoir
  TA2                  40.46     40.50     19.50      0.00 Tank
  
  Link Results at 0:00 Hrs:
  ----------------------------------------------------------------------
  Link                  Flow  VelocityUnit Headloss    Status
  ID                     LPS       m/s      m/km
  ----------------------------------------------------------------------
  1                    14.19      0.45      0.96      Open
  2                    17.32      0.55      1.37      Open
  3                    12.14      0.39      0.73      Open
  4                     2.24      0.07      0.04      Open
  flowmeas_5           15.08      0.48      1.07      Open
  flowmeas_6           14.38      0.46      0.98      Open
  flowmeas_7            3.70      0.12      0.09      Open
  PI2                 -18.78      0.60      1.59      Open
  PI3                   2.05      0.07      0.03      Open
  PI4                   2.05      0.07      0.03      Open
  PI5                   2.05      0.07      0.03      Open
  PI6                  12.63      0.40      0.78      Open
  PI7                  12.63      0.40      0.78      Open
  PI8                 -27.83      0.89      3.23      Open
  PI9                  40.46      1.29      6.39      Open
  PU2                  31.51      0.00    -45.06      Open Pump
  PU3                  17.15      0.00    -43.87      Open Pump
  


  Page 3                                                 Example network
  Node Results at 1:00 Hrs:
  ----------------------------------------------------------------------
  Node                Demand      Head  Pressure   Quality
  ID                     LPS         m         m          
  ----------------------------------------------------------------------
  1                     0.00     45.30     45.30      0.00
  cripressure_2         0.00     44.11     44.11      0.00
  3                     1.40     44.99     42.99      0.00
  4                     0.00     44.62     44.62      0.00
  5                     0.00     44.61     44.61      0.00
  cripressure_6         0.00     44.09     24.09      0.00
  JU1                   0.00     43.58     43.58      0.00
  JU2                   0.00     43.26     43.26      0.00
  JU3                   1.40     43.57     43.57      0.00
  JU4                   1.40     43.57     43.57      0.00
  JU5                   1.40     43.57     43.57      0.00
  JU6                   0.00     42.95     42.95      0.00
  9                   -31.04      0.00      0.00      0.00 Reservoir
  10                  -16.40      0.00      0.00      0.00 Reservoir
  TA2                  41.83     40.57     19.57      0.00 Tank
  
  Link Results at 1:00 Hrs:
  ----------------------------------------------------------------------
  Link                  Flow  VelocityUnit Headloss    Status
  ID                     LPS       m/s      m/km
  ----------------------------------------------------------------------
  1                    13.78      0.44      0.91      Open
  2                    17.26      0.55      1.36      Open
  3                    12.38      0.39      0.75      Open
  4                     2.19      0.07      0.04      Open
  flowmeas_5           15.07      0.48      1.07      Open
  flowmeas_6           14.57      0.46      1.01      Open
  flowmeas_7            2.81      0.09      0.05      Open
  PI2                 -17.88      0.57      1.45      Open
  PI3                   1.40      0.04      0.02      Open
  PI4                   1.40      0.04      0.02      Open
  PI5                   1.40      0.04      0.02      Open
  PI6                  13.68      0.44      0.90      Open
  PI7                  13.68      0.44      0.90      Open
  PI8                 -28.16      0.90      3.31      Open
  PI9                  41.83      1.33      6.79      Open
  PU2                  31.04      0.00    -45.30      Open Pump
  PU3                  16.40      0.00    -44.11      Open Pump
  


  Page 4                                                 Example network
  Node Results at 2:00 Hrs:
  ----------------------------------------------------------------------
  Node                Demand      Head  Pressure   Quality
  ID                     LPS         m         m          
  ----------------------------------------------------------------------
  1                     0.00     45.39     45.39      0.00
  cripressure_2         0.00     44.20     44.20      0.00
  3                     1.25     45.08     43.08      0.00
  4                     0.00     44.71     44.71      0.00
  5                     0.00     44.70     44.70      0.00
  cripressure_6         0.00     44.18     24.18      0.00
  JU1                   0.00     43.68     43.68      0.00
  JU2                   0.00     43.36     43.36      0.00
  JU3                   1.25     43.68     43.68      0.00
  JU4                   1.25     43.68     43.68      0.00
  JU5                   1.25     43.68     43.68      0.00
  JU6                   0.00     43.04     43.04      0.00
  9                   -30.87      0.00      0.00      0.00 Reservoir
  10                  -16.11      0.00      0.00      0.00 Reservoir
  TA2                  41.98     40.65     19.65      0.00 Tank
  
  Link Results at 2:00 Hrs:
  ----------------------------------------------------------------------
  Link                  Flow  VelocityUnit Headloss    Status
  ID                     LPS       m/s      m/km
  ----------------------------------------------------------------------
  1                    13.66      0.43      0.90      Open
  2                    17.21      0.55      1.36      Open
  3                    12.41      0.40      0.75      Open
  4                     2.17      0.07      0.03      Open
  flowmeas_5           15.04      0.48      1.07      Open
  flowmeas_6           14.58      0.46      1.01      Open
  flowmeas_7            2.56      0.08      0.05      Open
  PI2                 -17.60      0.56      1.41      Open
  PI3                   1.25      0.04      0.01      Open
  PI4                   1.25      0.04      0.01      Open
  PI5                   1.25      0.04      0.01      Open
  PI6                  13.85      0.44      0.92      Open
  PI7                  13.85      0.44      0.92      Open
  PI8                 -28.13      0.90      3.30      Open
  PI9                  41.98      1.34      6.83      Open
  PU2                  30.87      0.00    -45.39      Open Pump
  PU3                  16.11      0.00    -44.20      Open Pump
  


  Page 5                                                 Example network
  Node Results at 3:00 Hrs:
  ----------------------------------------------------------------------
  Node                Demand      Head  Pressure   Quality
  ID                     LPS         m         m          
  ----------------------------------------------------------------------
  1                     0.00     45.41     45.41      0.00
  cripressure_2         0.00     44.22     44.22      0.00
  3                     1.30     45.10     43.10      0.00
  4                     0.00     44.74     44.74      0.00
  5                     0.00     44.73     44.73      0.00
  cripressure_6         0.00     44.21     24.21      0.00
  JU1                   0.00     43.71     43.71      0.00
  JU2                   0.00     43.40     43.40      0.00
  JU3                   1.30     43.71     43.71      0.00
  JU4                   1.30     43.71     43.71      0.00
  JU5                   1.30     43.71     43.71      0.00
  JU6                   0.00     43.08     43.08      0.00
  9                   -30.83      0.00      0.00      0.00 Reservoir
  10                  -16.01      0.00      0.00      0.00 Reservoir
  TA2                  41.64     40.73     19.73      0.00 Tank
  
  Link Results at 3:00 Hrs:
  ----------------------------------------------------------------------
  Link                  Flow  VelocityUnit Headloss    Status
  ID                     LPS       m/s      m/km
  ----------------------------------------------------------------------
  1                    13.66      0.43      0.90      Open
  2                    17.17      0.55      1.35      Open
  3                    12.36      0.39      0.75      Open
  4                     2.18      0.07      0.03      Open
  flowmeas_5           14.99      0.48      1.06      Open
  flowmeas_6           14.53      0.46      1.00      Open
  flowmeas_7            2.60      0.08      0.05      Open
  PI2                 -17.59      0.56      1.41      Open
  PI3                   1.30      0.04      0.01      Open
  PI4                   1.30      0.04      0.01      Open
  PI5                   1.30      0.04      0.01      Open
  PI6                  13.69      0.44      0.90      Open
  PI7                  13.69      0.44      0.90      Open
  PI8                 -27.95      0.89      3.26      Open
  PI9                  41.64      1.33      6.73      Open
  PU2                  30.83      0.00    -45.41      Open Pump
  PU3                  16.01      0.00    -44.22      Open Pump
  


  Page 6                                                 Example network
  Node Results at 4:00 Hrs:
  ----------------------------------------------------------------------
  Node                Demand      Head  Pressure   Quality
  ID                     LPS         m         m          
  ----------------------------------------------------------------------
  1                     0.00     45.55     45.55      0.00
  cripressure_2         0.00     44.36     44.36      0.00
  3                     1.00     45.24     43.24      0.00
  4                     0.00     44.87     44.87      0.00
  5                     0.00     44.86     44.86      0.00
  cripressure_6         0.00     44.35     24.35      0.00
  JU1                   0.00     43.88     43.88      0.00
  JU2                   0.00     43.54     43.54      0.00
  JU3                   1.00     43.87     43.87      0.00
  JU4                   1.00     43.87     43.87      0.00
  JU5                   1.00     43.87     43.87      0.00
  JU6                   0.00     43.21     43.21      0.00
  9                   -30.57      0.00      0.00      0.00 Reservoir
  10                  -15.57      0.00      0.00      0.00 Reservoir
  TA2                  42.14     40.80     19.80      0.00 Tank
  
  Link Results at 4:00 Hrs:
  ----------------------------------------------------------------------
  Link                  Flow  VelocityUnit Headloss    Status
  ID                     LPS       m/s      m/km
  ----------------------------------------------------------------------
  1                    13.45      0.43      0.87      Open
  2                    17.12      0.54      1.35      Open
  3                    12.45      0.40      0.76      Open
  4                     2.15      0.07      0.03      Open
  flowmeas_5           14.97      0.48      1.06      Open
  flowmeas_6           14.59      0.46      1.01      Open
  flowmeas_7            2.13      0.07      0.03      Open
  PI2                 -17.11      0.54      1.34      Open
  PI3                   1.00      0.03      0.01      Open
  PI4                   1.00      0.03      0.01      Open
  PI5                   1.00      0.03      0.01      Open
  PI6                  14.11      0.45      0.95      Open
  PI7                  14.11      0.45      0.95      Open
  PI8                 -28.03      0.89      3.28      Open
  PI9                  42.14      1.34      6.88      Open
  PU2                  30.57      0.00    -45.55      Open Pump
  PU3                  15.57      0.00    -44.36      Open Pump
  


  Page 7                                                 Example network
  Node Results at 5:00 Hrs:
  ----------------------------------------------------------------------
  Node                Demand      Head  Pressure   Quality
  ID                     LPS         m         m          
  ----------------------------------------------------------------------
  1                     0.00     40.36     40.36      0.00
  cripressure_2         0.00     40.40     40.40      0.00
  3                     3.55     40.35     38.35      0.00
  4                     0.00     40.37     40.37      0.00
  5                     0.00     40.37     40.37      0.00
  cripressure_6         0.00     40.37     20.37      0.00
  JU1                   0.00     40.33     40.33      0.00
  JU2                   0.00     40.42     40.42      0.00
  JU3                   3.55     40.30     40.30      0.00
  JU4                   3.55     40.30     40.30      0.00
  JU5                   3.55     40.30     40.30      0.00
  JU6                   0.00     40.51     40.51      0.00
  9                     0.00      0.00      0.00      0.00 Reservoir
  10                    0.00      0.00      0.00      0.00 Reservoir
  TA2                 -14.20     40.85     19.85      0.00 Tank
  
  Link Results at 5:00 Hrs:
  ----------------------------------------------------------------------
  Link                  Flow  VelocityUnit Headloss    Status
  ID                     LPS       m/s      m/km
  ----------------------------------------------------------------------
  1                     1.39      0.04      0.02      Open
  2                    -1.39      0.04      0.02      Open
  3                    -2.16      0.07      0.03      Open
  4                    -1.09      0.03      0.01      Open
  flowmeas_5           -0.30      0.01      0.00      Open
  flowmeas_6           -3.25      0.10      0.07      Open
  flowmeas_7            4.19      0.13      0.11      Open
  PI2                  -3.90      0.12      0.10      Open
  PI3                   3.55      0.11      0.08      Open
  PI4                   3.55      0.11      0.08      Open
  PI5                   3.55      0.11      0.08      Open
  PI6                  -6.75      0.21      0.26      Open
  PI7                  -6.75      0.21      0.26      Open
  PI8                   7.45      0.24      0.30      Open
  PI9                 -14.20      0.45      0.96      Open
  PU2                   0.00      0.00      0.00    Closed Pump
  PU3                   0.00      0.00      0.00    Closed Pump
  


  Page 8                                                 Example network
  Node Results at 6:00 Hrs:
  ----------------------------------------------------------------------
  Node                Demand      Head  Pressure   Quality
  ID                     LPS         m         m          
  ----------------------------------------------------------------------
  1                     0.00     37.42     37.42      0.00
  cripressure_2         0.00     37.74     37.74      0.00
  3                    10.40     37.39     35.39      0.00
  4                     0.00     37.48     37.48      0.00
  5                     0.00     37.50     37.50      0.00
  cripressure_6         0.00     37.48     17.48      0.00
  JU1                   0.00     37.25     37.25      0.00
  JU2                   0.00     37.86     37.86      0.00
  JU3                  10.40     37.06     37.06      0.00
  JU4                  10.40     37.06     37.06      0.00
  JU5                  10.40     37.06     37.06      0.00
  JU6                   0.00     38.47     38.47      0.00
  9                     0.00      0.00      0.00      0.00 Reservoir
  10                    0.00      0.00      0.00      0.00 Reservoir
  TA2                 -41.60     40.82     19.82      0.00 Tank
  
  Link Results at 6:00 Hrs:
  ----------------------------------------------------------------------
  Link                  Flow  VelocityUnit Headloss    Status
  ID                     LPS       m/s      m/km
  ----------------------------------------------------------------------
  1                     4.08      0.13      0.10      Open
  2                    -4.08      0.13      0.10      Open
  3                    -6.32      0.20      0.23      Open
  4                    -3.25      0.10      0.07      Open
  flowmeas_5           -0.82      0.03      0.01      Open
  flowmeas_6           -9.58      0.30      0.48      Open
  flowmeas_7           12.27      0.39      0.74      Open
  PI2                 -11.45      0.36      0.65      Open
  PI3                  10.40      0.33      0.55      Open
  PI4                  10.40      0.33      0.55      Open
  PI5                  10.40      0.33      0.55      Open
  PI6                 -19.75      0.63      1.74      Open
  PI7                 -19.75      0.63      1.74      Open
  PI8                  21.85      0.70      2.09      Open
  PI9                 -41.60      1.32      6.72      Open
  PU2                   0.00      0.00      0.00    Closed Pump
  PU3                   0.00      0.00      0.00    Closed Pump
  


  Page 9                                                 Example network
  Node Results at 7:00 Hrs:
  ----------------------------------------------------------------------
  Node                Demand      Head  Pressure   Quality
  ID                     LPS         m         m          
  ----------------------------------------------------------------------
  1                     0.00     37.86     37.86      0.00
  cripressure_2         0.00     38.13     38.13      0.00
  3                     9.50     37.83     35.83      0.00
  4                     0.00     37.91     37.91      0.00
  5                     0.00     37.93     37.93      0.00
  cripressure_6         0.00     37.91     17.91      0.00
  JU1                   0.00     37.72     37.72      0.00
  JU2                   0.00     38.23     38.23      0.00
  JU3                   9.50     37.55     37.55      0.00
  JU4                   9.50     37.55     37.55      0.00
  JU5                   9.50     37.55     37.55      0.00
  JU6                   0.00     38.75     38.75      0.00
  9                     0.00      0.00      0.00      0.00 Reservoir
  10                    0.00      0.00      0.00      0.00 Reservoir
  TA2                 -38.00     40.74     19.74      0.00 Tank
  
  Link Results at 7:00 Hrs:
  ----------------------------------------------------------------------
  Link                  Flow  VelocityUnit Headloss    Status
  ID                     LPS       m/s      m/km
  ----------------------------------------------------------------------
  1                     3.72      0.12      0.09      Open
  2                    -3.72      0.12      0.09      Open
  3                    -5.78      0.18      0.19      Open
  4                    -2.97      0.09      0.06      Open
  flowmeas_5           -0.75      0.02      0.01      Open
  flowmeas_6           -8.75      0.28      0.40      Open
  flowmeas_7           11.21      0.36      0.63      Open
  PI2                 -10.45      0.33      0.56      Open
  PI3                   9.50      0.30      0.47      Open
  PI4                   9.50      0.30      0.47      Open
  PI5                   9.50      0.30      0.47      Open
  PI6                 -18.05      0.57      1.48      Open
  PI7                 -18.05      0.57      1.48      Open
  PI8                  19.96      0.64      1.77      Open
  PI9                 -38.00      1.21      5.70      Open
  PU2                   0.00      0.00      0.00    Closed Pump
  PU3                   0.00      0.00      0.00    Closed Pump
  


  Page 10                                                Example network
  Node Results at 8:00 Hrs:
  ----------------------------------------------------------------------
  Node                Demand      Head  Pressure   Quality
  ID                     LPS         m         m          
  ----------------------------------------------------------------------
  1                     0.00     39.44     39.44      0.00
  cripressure_2         0.00     39.55     39.55      0.00
  3                     5.95     39.42     37.42      0.00
  4                     0.00     39.46     39.46      0.00
  5                     0.00     39.47     39.47      0.00
  cripressure_6         0.00     39.46     19.46      0.00
  JU1                   0.00     39.37     39.37      0.00
  JU2                   0.00     39.60     39.60      0.00
  JU3                   5.95     39.30     39.30      0.00
  JU4                   5.95     39.30     39.30      0.00
  JU5                   5.95     39.30     39.30      0.00
  JU6                   0.00     39.82     39.82      0.00
  9                     0.00      0.00      0.00      0.00 Reservoir
  10                    0.00      0.00      0.00      0.00 Reservoir
  TA2                 -23.80     40.68     19.68      0.00 Tank
  
  Link Results at 8:00 Hrs:
  ----------------------------------------------------------------------
  Link                  Flow  VelocityUnit Headloss    Status
  ID                     LPS       m/s      m/km
  ----------------------------------------------------------------------
  1                     2.33      0.07      0.04      Open
  2                    -2.33      0.07      0.04      Open
  3                    -3.62      0.12      0.09      Open
  4                    -1.84      0.06      0.03      Open
  flowmeas_5           -0.48      0.02      0.00      Open
  flowmeas_6           -5.47      0.17      0.18      Open
  flowmeas_7            7.03      0.22      0.27      Open
  PI2                  -6.54      0.21      0.24      Open
  PI3                   5.95      0.19      0.20      Open
  PI4                   5.95      0.19      0.20      Open
  PI5                   5.95      0.19      0.20      Open
  PI6                 -11.31      0.36      0.64      Open
  PI7                 -11.31      0.36      0.64      Open
  PI8                  12.49      0.40      0.76      Open
  PI9                 -23.80      0.76      2.44      Open
  PU2                   0.00      0.00      0.00    Closed Pump
  PU3                   0.00      0.00      0.00    Closed Pump
  


  Page 11                                                Example network
  Node Results at 9:00 Hrs:
  ----------------------------------------------------------------------
  Node                Demand      Head  Pressure   Quality
  ID                     LPS         m         m          
  ----------------------------------------------------------------------
  1                     0.00     39.63     39.63      0.00
  cripressure_2         0.00     39.72     39.72      0.00
  3                     5.30     39.62     37.62      0.00
  4                     0.00     39.64     39.64      0.00
  5                     0.00     39.65     39.65      0.00
  cripressure_6         0.00     39.64     19.64      0.00
  JU1                   0.00     39.58     39.58      0.00
  JU2                   0.00     39.76     39.76      0.00
  JU3                   5.30     39.52     39.52      0.00
  JU4                   5.30     39.52     39.52      0.00
  JU5                   5.30     39.52     39.52      0.00
  JU6                   0.00     39.94     39.94      0.00
  9                     0.00      0.00      0.00      0.00 Reservoir
  10                    0.00      0.00      0.00      0.00 Reservoir
  TA2                 -21.20     40.63     19.63      0.00 Tank
  
  Link Results at 9:00 Hrs:
  ----------------------------------------------------------------------
  Link                  Flow  VelocityUnit Headloss    Status
  ID                     LPS       m/s      m/km
  ----------------------------------------------------------------------
  1                     2.07      0.07      0.03      Open
  2                    -2.07      0.07      0.03      Open
  3                    -3.23      0.10      0.07      Open
  4                    -1.64      0.05      0.02      Open
  flowmeas_5           -0.44      0.01      0.00      Open
  flowmeas_6           -4.86      0.15      0.14      Open
  flowmeas_7            6.26      0.20      0.22      Open
  PI2                  -5.82      0.19      0.20      Open
  PI3                   5.30      0.17      0.17      Open
  PI4                   5.30      0.17      0.17      Open
  PI5                   5.30      0.17      0.17      Open
  PI6                 -10.08      0.32      0.52      Open
  PI7                 -10.08      0.32      0.52      Open
  PI8                  11.12      0.35      0.62      Open
  PI9                 -21.20      0.67      1.98      Open
  PU2                   0.00      0.00      0.00    Closed Pump
  PU3                   0.00      0.00      0.00    Closed Pump
  


  Page 12                                                Example network
  Node Results at 10:00 Hrs:
  ----------------------------------------------------------------------
  Node                Demand      Head  Pressure   Quality
  ID                     LPS         m         m          
  ----------------------------------------------------------------------
  1                     0.00     39.72     39.72      0.00
  cripressure_2         0.00     39.80     39.80      0.00
  3                     4.90     39.71     37.71      0.00
  4                     0.00     39.73     39.73      0.00
  5                     0.00     39.74     39.74      0.00
  cripressure_6         0.00     39.73     19.73      0.00
  JU1                   0.00     39.68     39.68      0.00
  JU2                   0.00     39.83     39.83      0.00
  JU3                   4.90     39.62     39.62      0.00
  JU4                   4.90     39.62     39.62      0.00
  JU5                   4.90     39.62     39.62      0.00
  JU6                   0.00     39.99     39.99      0.00
  9                     0.00      0.00      0.00      0.00 Reservoir
  10                    0.00      0.00      0.00      0.00 Reservoir
  TA2                 -19.60     40.59     19.59      0.00 Tank
  
  Link Results at 10:00 Hrs:
  ----------------------------------------------------------------------
  Link                  Flow  VelocityUnit Headloss    Status
  ID                     LPS       m/s      m/km
  ----------------------------------------------------------------------
  1                     1.92      0.06      0.03      Open
  2                    -1.92      0.06      0.03      Open
  3                    -2.98      0.09      0.06      Open
  4                    -1.51      0.05      0.02      Open
  flowmeas_5           -0.41      0.01      0.00      Open
  flowmeas_6           -4.49      0.14      0.12      Open
  flowmeas_7            5.79      0.18      0.19      Open
  PI2                  -5.38      0.17      0.17      Open
  PI3                   4.90      0.16      0.14      Open
  PI4                   4.90      0.16      0.14      Open
  PI5                   4.90      0.16      0.14      Open
  PI6                  -9.32      0.30      0.45      Open
  PI7                  -9.32      0.30      0.45      Open
  PI8                  10.28      0.33      0.54      Open
  PI9                 -19.60      0.62      1.72      Open
  PU2                   0.00      0.00      0.00    Closed Pump
  PU3                   0.00      0.00      0.00    Closed Pump
  


  Page 13                                                Example network
  Node Results at 11:00 Hrs:
  ----------------------------------------------------------------------
  Node                Demand      Head  Pressure   Quality
  ID                     LPS         m         m          
  ----------------------------------------------------------------------
  1                     0.00     39.95     39.95      0.00
  cripressure_2         0.00     40.01     40.01      0.00
  3                     4.00     39.94     37.94      0.00
  4                     0.00     39.96     39.96      0.00
  5                     0.00     39.96     39.96      0.00
  cripressure_6         0.00     39.96     19.96      0.00
  JU1                   0.00     39.92     39.92      0.00
  JU2                   0.00     40.03     40.03      0.00
  JU3                   4.00     39.88     39.88      0.00
  JU4                   4.00     39.88     39.88      0.00
  JU5                   4.00     39.88     39.88      0.00
  JU6                   0.00     40.14     40.14      0.00
  9                     0.00      0.00      0.00      0.00 Reservoir
  10                    0.00      0.00      0.00      0.00 Reservoir
  TA2                 -16.00     40.56     19.56      0.00 Tank
  
  Link Results at 11:00 Hrs:
  ----------------------------------------------------------------------
  Link                  Flow  VelocityUnit Headloss    Status
  ID                     LPS       m/s      m/km
  ----------------------------------------------------------------------
  1                     1.56      0.05      0.02      Open
  2                    -1.56      0.05      0.02      Open
  3                    -2.44      0.08      0.04      Open
  4                    -1.23      0.04      0.01      Open
  flowmeas_5           -0.33      0.01      0.00      Open
  flowmeas_6           -3.67      0.12      0.09      Open
  flowmeas_7            4.73      0.15      0.14      Open
  PI2                  -4.39      0.14      0.12      Open
  PI3                   4.00      0.13      0.10      Open
  PI4                   4.00      0.13      0.10      Open
  PI5                   4.00      0.13      0.10      Open
  PI6                  -7.61      0.24      0.32      Open
  PI7                  -7.61      0.24      0.32      Open
  PI8                   8.39      0.27      0.38      Open
  PI9                 -16.00      0.51      1.19      Open
  PU2                   0.00      0.00      0.00    Closed Pump
  PU3                   0.00      0.00      0.00    Closed Pump
  


  Page 14                                                Example network
  Node Results at 12:00 Hrs:
  ----------------------------------------------------------------------
  Node                Demand      Head  Pressure   Quality
  ID                     LPS         m         m          
  ----------------------------------------------------------------------
  1                     0.00     42.90     42.90      0.00
  cripressure_2         0.00     41.52     41.52      0.00
  3                     4.25     42.45     40.45      0.00
  4                     0.00     42.10     42.10      0.00
  5                     0.00     42.08     42.08      0.00
  cripressure_6         0.00     41.53     21.53      0.00
  JU1                   0.00     41.14     41.14      0.00
  JU2                   0.00     41.13     41.13      0.00
  JU3                   4.25     41.10     41.10      0.00
  JU4                   4.25     41.10     41.10      0.00
  JU5                   4.25     41.10     41.10      0.00
  JU6                   0.00     41.11     41.11      0.00
  9                   -35.39      0.00      0.00      0.00 Reservoir
  10                    0.00      0.00      0.00      0.00 Reservoir
  TA2                  18.39     40.58     19.58      0.00 Tank
  
  Link Results at 12:00 Hrs:
  ----------------------------------------------------------------------
  Link                  Flow  VelocityUnit Headloss    Status
  ID                     LPS       m/s      m/km
  ----------------------------------------------------------------------
  1                    16.59      0.53      1.27      Open
  2                    18.80      0.60      1.59      Open
  3                    12.34      0.39      0.75      Open
  4                     3.07      0.10      0.06      Open
  flowmeas_5           15.73      0.50      1.16      Open
  flowmeas_6           15.40      0.49      1.11      Open
  flowmeas_7           -0.49      0.02      0.00      Open
  PI2                 -15.24      0.49      1.09      Open
  PI3                   4.25      0.14      0.11      Open
  PI4                   4.25      0.14      0.11      Open
  PI5                   4.25      0.14      0.11      Open
  PI6                   2.49      0.08      0.04      Open
  PI7                   2.49      0.08      0.04      Open
  PI8                 -15.90      0.51      1.18      Open
  PI9                  18.39      0.59      1.53      Open
  PU2                  35.39      0.00    -42.90      Open Pump
  PU3                   0.00      0.00      0.00    Closed Pump
  


  Page 15                                                Example network
  Node Results at 13:00 Hrs:
  ----------------------------------------------------------------------
  Node                Demand      Head  Pressure   Quality
  ID                     LPS         m         m          
  ----------------------------------------------------------------------
  1                     0.00     42.95     42.95      0.00
  cripressure_2         0.00     41.58     41.58      0.00
  3                     4.15     42.51     40.51      0.00
  4                     0.00     42.16     42.16      0.00
  5                     0.00     42.13     42.13      0.00
  cripressure_6         0.00     41.58     21.58      0.00
  JU1                   0.00     41.20     41.20      0.00
  JU2                   0.00     41.18     41.18      0.00
  JU3                   4.15     41.16     41.16      0.00
  JU4                   4.15     41.16     41.16      0.00
  JU5                   4.15     41.16     41.16      0.00
  JU6                   0.00     41.16     41.16      0.00
  9                   -35.30      0.00      0.00      0.00 Reservoir
  10                    0.00      0.00      0.00      0.00 Reservoir
  TA2                  18.70     40.61     19.61      0.00 Tank
  
  Link Results at 13:00 Hrs:
  ----------------------------------------------------------------------
  Link                  Flow  VelocityUnit Headloss    Status
  ID                     LPS       m/s      m/km
  ----------------------------------------------------------------------
  1                    16.52      0.53      1.26      Open
  2                    18.78      0.60      1.59      Open
  3                    12.37      0.39      0.75      Open
  4                     3.05      0.10      0.06      Open
  flowmeas_5           15.73      0.50      1.16      Open
  flowmeas_6           15.41      0.49      1.11      Open
  flowmeas_7           -0.55      0.02      0.00      Open
  PI2                 -15.19      0.48      1.08      Open
  PI3                   4.15      0.13      0.11      Open
  PI4                   4.15      0.13      0.11      Open
  PI5                   4.15      0.13      0.11      Open
  PI6                   2.74      0.09      0.05      Open
  PI7                   2.74      0.09      0.05      Open
  PI8                 -15.96      0.51      1.19      Open
  PI9                  18.70      0.60      1.58      Open
  PU2                  35.30      0.00    -42.95      Open Pump
  PU3                   0.00      0.00      0.00    Closed Pump
  


  Page 16                                                Example network
  Node Results at 14:00 Hrs:
  ----------------------------------------------------------------------
  Node                Demand      Head  Pressure   Quality
  ID                     LPS         m         m          
  ----------------------------------------------------------------------
  1                     0.00     44.53     44.53      0.00
  cripressure_2         0.00     43.39     43.39      0.00
  3                     4.00     44.15     42.15      0.00
  4                     0.00     43.85     43.85      0.00
  5                     0.00     43.83     43.83      0.00
  cripressure_6         0.00     43.32     23.32      0.00
  JU1                   0.00     42.65     42.65      0.00
  JU2                   0.00     42.51     42.51      0.00
  JU3                   4.00     42.62     42.62      0.00
  JU4                   4.00     42.62     42.62      0.00
  JU5                   4.00     42.62     42.62      0.00
  JU6                   0.00     42.37     42.37      0.00
  9                   -32.51      0.00      0.00      0.00 Reservoir
  10                  -18.55      0.00      0.00      0.00 Reservoir
  TA2                  35.06     40.65     19.65      0.00 Tank
  
  Link Results at 14:00 Hrs:
  ----------------------------------------------------------------------
  Link                  Flow  VelocityUnit Headloss    Status
  ID                     LPS       m/s      m/km
  ----------------------------------------------------------------------
  1                    15.23      0.48      1.09      Open
  2                    17.27      0.55      1.37      Open
  3                    11.23      0.36      0.63      Open
  4                     2.34      0.07      0.04      Open
  flowmeas_5           14.93      0.48      1.05      Open
  flowmeas_6           13.57      0.43      0.89      Open
  flowmeas_7            5.84      0.19      0.20      Open
  PI2                 -20.78      0.66      1.91      Open
  PI3                   4.00      0.13      0.10      Open
  PI4                   4.00      0.13      0.10      Open
  PI5                   4.00      0.13      0.10      Open
  PI6                   8.78      0.28      0.41      Open
  PI7                   8.78      0.28      0.41      Open
  PI8                 -26.28      0.84      2.92      Open
  PI9                  35.06      1.12      4.92      Open
  PU2                  32.51      0.00    -44.53      Open Pump
  PU3                  18.55      0.00    -43.39      Open Pump
  


  Page 17                                                Example network
  Node Results at 15:00 Hrs:
  ----------------------------------------------------------------------
  Node                Demand      Head  Pressure   Quality
  ID                     LPS         m         m          
  ----------------------------------------------------------------------
  1                     0.00     43.99     43.99      0.00
  cripressure_2         0.00     42.90     42.90      0.00
  3                     6.00     43.56     41.56      0.00
  4                     0.00     43.31     43.31      0.00
  5                     0.00     43.29     43.29      0.00
  cripressure_6         0.00     42.79     22.79      0.00
  JU1                   0.00     42.04     42.04      0.00
  JU2                   0.00     42.00     42.00      0.00
  JU3                   6.00     41.96     41.96      0.00
  JU4                   6.00     41.96     41.96      0.00
  JU5                   6.00     41.96     41.96      0.00
  JU6                   0.00     41.96     41.96      0.00
  9                   -33.49      0.00      0.00      0.00 Reservoir
  10                  -19.89      0.00      0.00      0.00 Reservoir
  TA2                  29.38     40.71     19.71      0.00 Tank
  
  Link Results at 15:00 Hrs:
  ----------------------------------------------------------------------
  Link                  Flow  VelocityUnit Headloss    Status
  ID                     LPS       m/s      m/km
  ----------------------------------------------------------------------
  1                    16.24      0.52      1.22      Open
  2                    17.24      0.55      1.36      Open
  3                    10.24      0.33      0.54      Open
  4                     2.47      0.08      0.04      Open
  flowmeas_5           14.78      0.47      1.03      Open
  flowmeas_6           12.71      0.40      0.79      Open
  flowmeas_7            7.48      0.24      0.31      Open
  PI2                 -22.25      0.71      2.16      Open
  PI3                   6.00      0.19      0.21      Open
  PI4                   6.00      0.19      0.21      Open
  PI5                   6.00      0.19      0.21      Open
  PI6                   4.25      0.14      0.11      Open
  PI7                   4.25      0.14      0.11      Open
  PI8                 -25.12      0.80      2.69      Open
  PI9                  29.38      0.94      3.57      Open
  PU2                  33.49      0.00    -43.99      Open Pump
  PU3                  19.89      0.00    -42.90      Open Pump
  


  Page 18                                                Example network
  Node Results at 16:00 Hrs:
  ----------------------------------------------------------------------
  Node                Demand      Head  Pressure   Quality
  ID                     LPS         m         m          
  ----------------------------------------------------------------------
  1                     0.00     43.64     43.64      0.00
  cripressure_2         0.00     42.59     42.59      0.00
  3                     7.50     43.18     41.18      0.00
  4                     0.00     42.97     42.97      0.00
  5                     0.00     42.95     42.95      0.00
  cripressure_6         0.00     42.46     22.46      0.00
  JU1                   0.00     41.68     41.68      0.00
  JU2                   0.00     41.68     41.68      0.00
  JU3                   7.50     41.57     41.57      0.00
  JU4                   7.50     41.57     41.57      0.00
  JU5                   7.50     41.57     41.57      0.00
  JU6                   0.00     41.68     41.68      0.00
  9                   -34.10      0.00      0.00      0.00 Reservoir
  10                  -20.69      0.00      0.00      0.00 Reservoir
  TA2                  24.80     40.76     19.76      0.00 Tank
  
  Link Results at 16:00 Hrs:
  ----------------------------------------------------------------------
  Link                  Flow  VelocityUnit Headloss    Status
  ID                     LPS       m/s      m/km
  ----------------------------------------------------------------------
  1                    16.94      0.54      1.32      Open
  2                    17.17      0.55      1.35      Open
  3                     9.44      0.30      0.46      Open
  4                     2.64      0.08      0.05      Open
  flowmeas_5           14.53      0.46      1.00      Open
  flowmeas_6           12.07      0.38      0.72      Open
  flowmeas_7            8.15      0.26      0.36      Open
  PI2                 -22.68      0.72      2.23      Open
  PI3                   7.50      0.24      0.31      Open
  PI4                   7.50      0.24      0.31      Open
  PI5                   7.50      0.24      0.31      Open
  PI6                   0.18      0.01      0.00      Open
  PI7                   0.18      0.01      0.00      Open
  PI8                 -24.61      0.78      2.59      Open
  PI9                  24.80      0.79      2.62      Open
  PU2                  34.10      0.00    -43.64      Open Pump
  PU3                  20.69      0.00    -42.59      Open Pump
  


  Page 19                                                Example network
  Node Results at 17:00 Hrs:
  ----------------------------------------------------------------------
  Node                Demand      Head  Pressure   Quality
  ID                     LPS         m         m          
  ----------------------------------------------------------------------
  1                     0.00     43.38     43.38      0.00
  cripressure_2         0.00     42.36     42.36      0.00
  3                     8.75     42.89     40.89      0.00
  4                     0.00     42.71     42.71      0.00
  5                     0.00     42.69     42.69      0.00
  cripressure_6         0.00     42.22     22.22      0.00
  JU1                   0.00     41.43     41.43      0.00
  JU2                   0.00     41.45     41.45      0.00
  JU3                   8.75     41.29     41.29      0.00
  JU4                   8.75     41.29     41.29      0.00
  JU5                   8.75     41.29     41.29      0.00
  JU6                   0.00     41.48     41.48      0.00
  9                   -34.56      0.00      0.00      0.00 Reservoir
  10                  -21.27      0.00      0.00      0.00 Reservoir
  TA2                  20.83     40.81     19.81      0.00 Tank
  
  Link Results at 17:00 Hrs:
  ----------------------------------------------------------------------
  Link                  Flow  VelocityUnit Headloss    Status
  ID                     LPS       m/s      m/km
  ----------------------------------------------------------------------
  1                    17.47      0.56      1.40      Open
  2                    17.09      0.54      1.34      Open
  3                     8.72      0.28      0.40      Open
  4                     2.80      0.09      0.05      Open
  flowmeas_5           14.29      0.45      0.97      Open
  flowmeas_6           11.52      0.37      0.66      Open
  flowmeas_7            8.59      0.27      0.39      Open
  PI2                 -22.88      0.73      2.27      Open
  PI3                   8.75      0.28      0.40      Open
  PI4                   8.75      0.28      0.40      Open
  PI5                   8.75      0.28      0.40      Open
  PI6                  -3.37      0.11      0.07      Open
  PI7                  -3.37      0.11      0.07      Open
  PI8                 -24.20      0.77      2.51      Open
  PI9                  20.83      0.66      1.92      Open
  PU2                  34.56      0.00    -43.38      Open Pump
  PU3                  21.27      0.00    -42.36      Open Pump
  


  Page 20                                                Example network
  Node Results at 18:00 Hrs:
  ----------------------------------------------------------------------
  Node                Demand      Head  Pressure   Quality
  ID                     LPS         m         m          
  ----------------------------------------------------------------------
  1                     0.00     43.58     43.58      0.00
  cripressure_2         0.00     42.54     42.54      0.00
  3                     8.00     43.11     41.11      0.00
  4                     0.00     42.91     42.91      0.00
  5                     0.00     42.89     42.89      0.00
  cripressure_6         0.00     42.42     22.42      0.00
  JU1                   0.00     41.64     41.64      0.00
  JU2                   0.00     41.64     41.64      0.00
  JU3                   8.00     41.52     41.52      0.00
  JU4                   8.00     41.52     41.52      0.00
  JU5                   8.00     41.52     41.52      0.00
  JU6                   0.00     41.65     41.65      0.00
  9                   -34.21      0.00      0.00      0.00 Reservoir
  10                  -20.81      0.00      0.00      0.00 Reservoir
  TA2                  23.02     40.85     19.85      0.00 Tank
  
  Link Results at 18:00 Hrs:
  ----------------------------------------------------------------------
  Link                  Flow  VelocityUnit Headloss    Status
  ID                     LPS       m/s      m/km
  ----------------------------------------------------------------------
  1                    17.12      0.54      1.35      Open
  2                    17.09      0.54      1.34      Open
  3                     9.12      0.29      0.44      Open
  4                     2.71      0.09      0.05      Open
  flowmeas_5           14.38      0.46      0.98      Open
  flowmeas_6           11.83      0.38      0.69      Open
  flowmeas_7            8.23      0.26      0.36      Open
  PI2                 -22.61      0.72      2.22      Open
  PI3                   8.00      0.25      0.34      Open
  PI4                   8.00      0.25      0.34      Open
  PI5                   8.00      0.25      0.34      Open
  PI6                  -1.39      0.04      0.02      Open
  PI7                  -1.39      0.04      0.02      Open
  PI8                 -24.41      0.78      2.55      Open
  PI9                  23.02      0.73      2.29      Open
  PU2                  34.21      0.00    -43.58      Open Pump
  PU3                  20.81      0.00    -42.54      Open Pump
  


  Page 21                                                Example network
  Node Results at 19:00 Hrs:
  ----------------------------------------------------------------------
  Node                Demand      Head  Pressure   Quality
  ID                     LPS         m         m          
  ----------------------------------------------------------------------
  1                     0.00     39.54     39.54      0.00
  cripressure_2         0.00     39.66     39.66      0.00
  3                     6.00     39.53     37.53      0.00
  4                     0.00     39.56     39.56      0.00
  5                     0.00     39.57     39.57      0.00
  cripressure_6         0.00     39.56     19.56      0.00
  JU1                   0.00     39.47     39.47      0.00
  JU2                   0.00     39.70     39.70      0.00
  JU3                   6.00     39.40     39.40      0.00
  JU4                   6.00     39.40     39.40      0.00
  JU5                   6.00     39.40     39.40      0.00
  JU6                   0.00     39.93     39.93      0.00
  9                     0.00      0.00      0.00      0.00 Reservoir
  10                    0.00      0.00      0.00      0.00 Reservoir
  TA2                 -24.00     40.80     19.80      0.00 Tank
  
  Link Results at 19:00 Hrs:
  ----------------------------------------------------------------------
  Link                  Flow  VelocityUnit Headloss    Status
  ID                     LPS       m/s      m/km
  ----------------------------------------------------------------------
  1                     2.35      0.07      0.04      Open
  2                    -2.35      0.07      0.04      Open
  3                    -3.65      0.12      0.09      Open
  4                    -1.86      0.06      0.03      Open
  flowmeas_5           -0.49      0.02      0.00      Open
  flowmeas_6           -5.51      0.18      0.18      Open
  flowmeas_7            7.08      0.23      0.28      Open
  PI2                  -6.60      0.21      0.24      Open
  PI3                   6.00      0.19      0.21      Open
  PI4                   6.00      0.19      0.21      Open
  PI5                   6.00      0.19      0.21      Open
  PI6                 -11.40      0.36      0.65      Open
  PI7                 -11.40      0.36      0.65      Open
  PI8                  12.60      0.40      0.78      Open
  PI9                 -24.00      0.76      2.47      Open
  PU2                   0.00      0.00      0.00    Closed Pump
  PU3                   0.00      0.00      0.00    Closed Pump
  


  Page 22                                                Example network
  Node Results at 20:00 Hrs:
  ----------------------------------------------------------------------
  Node                Demand      Head  Pressure   Quality
  ID                     LPS         m         m          
  ----------------------------------------------------------------------
  1                     0.00     39.68     39.68      0.00
  cripressure_2         0.00     39.78     39.78      0.00
  3                     5.50     39.67     37.67      0.00
  4                     0.00     39.69     39.69      0.00
  5                     0.00     39.70     39.70      0.00
  cripressure_6         0.00     39.70     19.70      0.00
  JU1                   0.00     39.62     39.62      0.00
  JU2                   0.00     39.82     39.82      0.00
  JU3                   5.50     39.56     39.56      0.00
  JU4                   5.50     39.56     39.56      0.00
  JU5                   5.50     39.56     39.56      0.00
  JU6                   0.00     40.01     40.01      0.00
  9                     0.00      0.00      0.00      0.00 Reservoir
  10                    0.00      0.00      0.00      0.00 Reservoir
  TA2                 -22.00     40.75     19.75      0.00 Tank
  
  Link Results at 20:00 Hrs:
  ----------------------------------------------------------------------
  Link                  Flow  VelocityUnit Headloss    Status
  ID                     LPS       m/s      m/km
  ----------------------------------------------------------------------
  1                     2.15      0.07      0.03      Open
  2                    -2.15      0.07      0.03      Open
  3                    -3.35      0.11      0.07      Open
  4                    -1.70      0.05      0.02      Open
  flowmeas_5           -0.45      0.01      0.00      Open
  flowmeas_6           -5.05      0.16      0.15      Open
  flowmeas_7            6.50      0.21      0.24      Open
  PI2                  -6.04      0.19      0.21      Open
  PI3                   5.50      0.18      0.18      Open
  PI4                   5.50      0.18      0.18      Open
  PI5                   5.50      0.18      0.18      Open
  PI6                 -10.46      0.33      0.56      Open
  PI7                 -10.46      0.33      0.56      Open
  PI8                  11.54      0.37      0.66      Open
  PI9                 -22.00      0.70      2.11      Open
  PU2                   0.00      0.00      0.00    Closed Pump
  PU3                   0.00      0.00      0.00    Closed Pump
  


  Page 23                                                Example network
  Node Results at 21:00 Hrs:
  ----------------------------------------------------------------------
  Node                Demand      Head  Pressure   Quality
  ID                     LPS         m         m          
  ----------------------------------------------------------------------
  1                     0.00     40.29     40.29      0.00
  cripressure_2         0.00     40.33     40.33      0.00
  3                     3.25     40.29     38.29      0.00
  4                     0.00     40.30     40.30      0.00
  5                     0.00     40.30     40.30      0.00
  cripressure_6         0.00     40.30     20.30      0.00
  JU1                   0.00     40.27     40.27      0.00
  JU2                   0.00     40.35     40.35      0.00
  JU3                   3.25     40.25     40.25      0.00
  JU4                   3.25     40.25     40.25      0.00
  JU5                   3.25     40.25     40.25      0.00
  JU6                   0.00     40.42     40.42      0.00
  9                     0.00      0.00      0.00      0.00 Reservoir
  10                    0.00      0.00      0.00      0.00 Reservoir
  TA2                 -13.00     40.71     19.71      0.00 Tank
  
  Link Results at 21:00 Hrs:
  ----------------------------------------------------------------------
  Link                  Flow  VelocityUnit Headloss    Status
  ID                     LPS       m/s      m/km
  ----------------------------------------------------------------------
  1                     1.27      0.04      0.01      Open
  2                    -1.27      0.04      0.01      Open
  3                    -1.98      0.06      0.03      Open
  4                    -1.00      0.03      0.01      Open
  flowmeas_5           -0.27      0.01      0.00      Open
  flowmeas_6           -2.98      0.09      0.06      Open
  flowmeas_7            3.84      0.12      0.09      Open
  PI2                  -3.57      0.11      0.08      Open
  PI3                   3.25      0.10      0.07      Open
  PI4                   3.25      0.10      0.07      Open
  PI5                   3.25      0.10      0.07      Open
  PI6                  -6.18      0.20      0.22      Open
  PI7                  -6.18      0.20      0.22      Open
  PI8                   6.82      0.22      0.26      Open
  PI9                 -13.00      0.41      0.82      Open
  PU2                   0.00      0.00      0.00    Closed Pump
  PU3                   0.00      0.00      0.00    Closed Pump
  


  Page 24                                                Example network
  Node Results at 22:00 Hrs:
  ----------------------------------------------------------------------
  Node                Demand      Head  Pressure   Quality
  ID                     LPS         m         m          
  ----------------------------------------------------------------------
  1                     0.00     40.50     40.50      0.00
  cripressure_2         0.00     40.52     40.52      0.00
  3                     2.05     40.50     38.50      0.00
  4                     0.00     40.51     40.51      0.00
  5                     0.00     40.51     40.51      0.00
  cripressure_6         0.00     40.51     20.51      0.00
  JU1                   0.00     40.49     40.49      0.00
  JU2                   0.00     40.53     40.53      0.00
  JU3                   2.05     40.48     40.48      0.00
  JU4                   2.05     40.48     40.48      0.00
  JU5                   2.05     40.48     40.48      0.00
  JU6                   0.00     40.56     40.56      0.00
  9                     0.00      0.00      0.00      0.00 Reservoir
  10                    0.00      0.00      0.00      0.00 Reservoir
  TA2                  -8.20     40.69     19.69      0.00 Tank
  
  Link Results at 22:00 Hrs:
  ----------------------------------------------------------------------
  Link                  Flow  VelocityUnit Headloss    Status
  ID                     LPS       m/s      m/km
  ----------------------------------------------------------------------
  1                     0.80      0.03      0.01      Open
  2                    -0.80      0.03      0.01      Open
  3                    -1.25      0.04      0.01      Open
  4                    -0.62      0.02      0.00      Open
  flowmeas_5           -0.17      0.01      0.00      Open
  flowmeas_6           -1.88      0.06      0.03      Open
  flowmeas_7            2.42      0.08      0.04      Open
  PI2                  -2.25      0.07      0.04      Open
  PI3                   2.05      0.07      0.03      Open
  PI4                   2.05      0.07      0.03      Open
  PI5                   2.05      0.07      0.03      Open
  PI6                  -3.90      0.12      0.10      Open
  PI7                  -3.90      0.12      0.10      Open
  PI8                   4.30      0.14      0.11      Open
  PI9                  -8.20      0.26      0.36      Open
  PU2                   0.00      0.00      0.00    Closed Pump
  PU3                   0.00      0.00      0.00    Closed Pump
  


  Page 25                                                Example network
  Node Results at 23:00 Hrs:
  ----------------------------------------------------------------------
  Node                Demand      Head  Pressure   Quality
  ID                     LPS         m         m          
  ----------------------------------------------------------------------
  1                     0.00     40.58     40.58      0.00
  cripressure_2         0.00     40.59     40.59      0.00
  3                     1.40     40.58     38.58      0.00
  4                     0.00     40.58     40.58      0.00
  5                     0.00     40.58     40.58      0.00
  cripressure_6         0.00     40.58     20.58      0.00
  JU1                   0.00     40.57     40.57      0.00
  JU2                   0.00     40.59     40.59      0.00
  JU3                   1.40     40.57     40.57      0.00
  JU4                   1.40     40.57     40.57      0.00
  JU5                   1.40     40.57     40.57      0.00
  JU6                   0.00     40.61     40.61      0.00
  9                     0.00      0.00      0.00      0.00 Reservoir
  10                    0.00      0.00      0.00      0.00 Reservoir
  TA2                  -5.60     40.67     19.67      0.00 Tank
  
  Link Results at 23:00 Hrs:
  ----------------------------------------------------------------------
  Link                  Flow  VelocityUnit Headloss    Status
  ID                     LPS       m/s      m/km
  ----------------------------------------------------------------------
  1                     0.57      0.02      0.00      Open
  2                    -0.57      0.02      0.00      Open
  3                    -0.83      0.03      0.01      Open
  4                    -0.46      0.01      0.00      Open
  flowmeas_5           -0.11      0.00      0.00      Open
  flowmeas_6           -1.29      0.04      0.01      Open
  flowmeas_7            1.64      0.05      0.02      Open
  PI2                  -1.53      0.05      0.02      Open
  PI3                   1.40      0.04      0.02      Open
  PI4                   1.40      0.04      0.02      Open
  PI5                   1.40      0.04      0.02      Open
  PI6                  -2.67      0.08      0.05      Open
  PI7                  -2.67      0.08      0.05      Open
  PI8                   2.93      0.09      0.06      Open
  PI9                  -5.60      0.18      0.18      Open
  PU2                   0.00      0.00      0.00    Closed Pump
  PU3                   0.00      0.00      0.00    Closed Pump
  


  Page 26                                                Example network
  Node Results at 24:00 Hrs:
  ----------------------------------------------------------------------
  Node                Demand      Head  Pressure   Quality
  ID                     LPS         m         m          
  ----------------------------------------------------------------------
  1                     0.00     40.48     40.48      0.00
  cripressure_2         0.00     40.50     40.50      0.00
  3                     2.05     40.48     38.48      0.00
  4                     0.00     40.48     40.48      0.00
  5                     0.00     40.48     40.48      0.00
  cripressure_6         0.00     40.48     20.48      0.00
  JU1                   0.00     40.47     40.47      0.00
  JU2                   0.00     40.50     40.50      0.00
  JU3                   2.05     40.46     40.46      0.00
  JU4                   2.05     40.46     40.46      0.00
  JU5                   2.05     40.46     40.46      0.00
  JU6                   0.00     40.54     40.54      0.00
  9                     0.00      0.00      0.00      0.00 Reservoir
  10                    0.00      0.00      0.00      0.00 Reservoir
  TA2                  -8.20     40.66     19.66      0.00 Tank
  
  Link Results at 24:00 Hrs:
  ----------------------------------------------------------------------
  Link                  Flow  VelocityUnit Headloss    Status
  ID                     LPS       m/s      m/km
  ----------------------------------------------------------------------
  1                     0.80      0.03      0.01      Open
  2                    -0.80      0.03      0.01      Open
  3                    -1.25      0.04      0.01      Open
  4                    -0.63      0.02      0.00      Open
  flowmeas_5           -0.17      0.01      0.00      Open
  flowmeas_6           -1.88      0.06      0.03      Open
  flowmeas_7            2.42      0.08      0.04      Open
  PI2                  -2.25      0.07      0.04      Open
  PI3                   2.05      0.07      0.03      Open
  PI4                   2.05      0.07      0.03      Open
  PI5                   2.05      0.07      0.03      Open
  PI6                  -3.90      0.12      0.10      Open
  PI7                  -3.90      0.12      0.10      Open
  PI8                   4.30      0.14      0.11      Open
  PI9                  -8.20      0.26      0.36      Open
  PU2                   0.00      0.00      0.00    Closed Pump
  PU3                   0.00      0.00      0.00    Closed Pump
  


  Page 27                                                Example network
  Node Results at 25:00 Hrs:
  ----------------------------------------------------------------------
  Node                Demand      Head  Pressure   Quality
  ID                     LPS         m         m          
  ----------------------------------------------------------------------
  1                     0.00     40.55     40.55      0.00
  cripressure_2         0.00     40.56     40.56      0.00
  3                     1.40     40.55     38.55      0.00
  4                     0.00     40.55     40.55      0.00
  5                     0.00     40.55     40.55      0.00
  cripressure_6         0.00     40.55     20.55      0.00
  JU1                   0.00     40.55     40.55      0.00
  JU2                   0.00     40.57     40.57      0.00
  JU3                   1.40     40.54     40.54      0.00
  JU4                   1.40     40.54     40.54      0.00
  JU5                   1.40     40.54     40.54      0.00
  JU6                   0.00     40.58     40.58      0.00
  9                     0.00      0.00      0.00      0.00 Reservoir
  10                    0.00      0.00      0.00      0.00 Reservoir
  TA2                  -5.60     40.65     19.65      0.00 Tank
  
  Link Results at 25:00 Hrs:
  ----------------------------------------------------------------------
  Link                  Flow  VelocityUnit Headloss    Status
  ID                     LPS       m/s      m/km
  ----------------------------------------------------------------------
  1                     0.57      0.02      0.00      Open
  2                    -0.57      0.02      0.00      Open
  3                    -0.83      0.03      0.01      Open
  4                    -0.46      0.01      0.00      Open
  flowmeas_5           -0.11      0.00      0.00      Open
  flowmeas_6           -1.29      0.04      0.01      Open
  flowmeas_7            1.64      0.05      0.02      Open
  PI2                  -1.53      0.05      0.02      Open
  PI3                   1.40      0.04      0.02      Open
  PI4                   1.40      0.04      0.02      Open
  PI5                   1.40      0.04      0.02      Open
  PI6                  -2.67      0.08      0.05      Open
  PI7                  -2.67      0.08      0.05      Open
  PI8                   2.93      0.09      0.06      Open
  PI9                  -5.60      0.18      0.18      Open
  PU2                   0.00      0.00      0.00    Closed Pump
  PU3                   0.00      0.00      0.00    Closed Pump
  


  Page 28                                                Example network
  Node Results at 26:00 Hrs:
  ----------------------------------------------------------------------
  Node                Demand      Head  Pressure   Quality
  ID                     LPS         m         m          
  ----------------------------------------------------------------------
  1                     0.00     40.56     40.56      0.00
  cripressure_2         0.00     40.57     40.57      0.00
  3                     1.25     40.56     38.56      0.00
  4                     0.00     40.56     40.56      0.00
  5                     0.00     40.56     40.56      0.00
  cripressure_6         0.00     40.56     20.56      0.00
  JU1                   0.00     40.56     40.56      0.00
  JU2                   0.00     40.57     40.57      0.00
  JU3                   1.25     40.55     40.55      0.00
  JU4                   1.25     40.55     40.55      0.00
  JU5                   1.25     40.55     40.55      0.00
  JU6                   0.00     40.58     40.58      0.00
  9                     0.00      0.00      0.00      0.00 Reservoir
  10                    0.00      0.00      0.00      0.00 Reservoir
  TA2                  -5.00     40.64     19.64      0.00 Tank
  
  Link Results at 26:00 Hrs:
  ----------------------------------------------------------------------
  Link                  Flow  VelocityUnit Headloss    Status
  ID                     LPS       m/s      m/km
  ----------------------------------------------------------------------
  1                     0.52      0.02      0.00      Open
  2                    -0.52      0.02      0.00      Open
  3                    -0.73      0.02      0.01      Open
  4                    -0.42      0.01      0.00      Open
  flowmeas_5           -0.10      0.00      0.00      Open
  flowmeas_6           -1.15      0.04      0.01      Open
  flowmeas_7            1.47      0.05      0.02      Open
  PI2                  -1.37      0.04      0.02      Open
  PI3                   1.25      0.04      0.01      Open
  PI4                   1.25      0.04      0.01      Open
  PI5                   1.25      0.04      0.01      Open
  PI6                  -2.38      0.08      0.04      Open
  PI7                  -2.38      0.08      0.04      Open
  PI8                   2.62      0.08      0.05      Open
  PI9                  -5.00      0.16      0.15      Open
  PU2                   0.00      0.00      0.00    Closed Pump
  PU3                   0.00      0.00      0.00    Closed Pump
  


  Page 29                                                Example network
  Node Results at 27:00 Hrs:
  ----------------------------------------------------------------------
  Node                Demand      Head  Pressure   Quality
  ID                     LPS         m         m          
  ----------------------------------------------------------------------
  1                     0.00     40.54     40.54      0.00
  cripressure_2         0.00     40.55     40.55      0.00
  3                     1.30     40.54     38.54      0.00
  4                     0.00     40.55     40.55      0.00
  5                     0.00     40.55     40.55      0.00
  cripressure_6         0.00     40.55     20.55      0.00
  JU1                   0.00     40.54     40.54      0.00
  JU2                   0.00     40.56     40.56      0.00
  JU3                   1.30     40.54     40.54      0.00
  JU4                   1.30     40.54     40.54      0.00
  JU5                   1.30     40.54     40.54      0.00
  JU6                   0.00     40.57     40.57      0.00
  9                     0.00      0.00      0.00      0.00 Reservoir
  10                    0.00      0.00      0.00      0.00 Reservoir
  TA2                  -5.20     40.63     19.63      0.00 Tank
  
  Link Results at 27:00 Hrs:
  ----------------------------------------------------------------------
  Link                  Flow  VelocityUnit Headloss    Status
  ID                     LPS       m/s      m/km
  ----------------------------------------------------------------------
  1                     0.54      0.02      0.00      Open
  2                    -0.54      0.02      0.00      Open
  3                    -0.76      0.02      0.01      Open
  4                    -0.44      0.01      0.00      Open
  flowmeas_5           -0.10      0.00      0.00      Open
  flowmeas_6           -1.20      0.04      0.01      Open
  flowmeas_7            1.53      0.05      0.02      Open
  PI2                  -1.42      0.05      0.02      Open
  PI3                   1.30      0.04      0.01      Open
  PI4                   1.30      0.04      0.01      Open
  PI5                   1.30      0.04      0.01      Open
  PI6                  -2.48      0.08      0.04      Open
  PI7                  -2.48      0.08      0.04      Open
  PI8                   2.73      0.09      0.05      Open
  PI9                  -5.20      0.17      0.16      Open
  PU2                   0.00      0.00      0.00    Closed Pump
  PU3                   0.00      0.00      0.00    Closed Pump
  


  Page 30                                                Example network
  Node Results at 28:00 Hrs:
  ----------------------------------------------------------------------
  Node                Demand      Head  Pressure   Quality
  ID                     LPS         m         m          
  ----------------------------------------------------------------------
  1                     0.00     40.57     40.57      0.00
  cripressure_2         0.00     40.57     40.57      0.00
  3                     1.00     40.57     38.57      0.00
  4                     0.00     40.57     40.57      0.00
  5                     0.00     40.57     40.57      0.00
  cripressure_6         0.00     40.57     20.57      0.00
  JU1                   0.00     40.56     40.56      0.00
  JU2                   0.00     40.57     40.57      0.00
  JU3                   1.00     40.56     40.56      0.00
  JU4                   1.00     40.56     40.56      0.00
  JU5                   1.00     40.56     40.56      0.00
  JU6                   0.00     40.58     40.58      0.00
  9                     0.00      0.00      0.00      0.00 Reservoir
  10                    0.00      0.00      0.00      0.00 Reservoir
  TA2                  -4.00     40.62     19.62      0.00 Tank
  
  Link Results at 28:00 Hrs:
  ----------------------------------------------------------------------
  Link                  Flow  VelocityUnit Headloss    Status
  ID                     LPS       m/s      m/km
  ----------------------------------------------------------------------
  1                     0.44      0.01      0.00      Open
  2                    -0.44      0.01      0.00      Open
  3                    -0.56      0.02      0.00      Open
  4                    -0.36      0.01      0.00      Open
  flowmeas_5           -0.08      0.00      0.00      Open
  flowmeas_6           -0.92      0.03      0.01      Open
  flowmeas_7            1.17      0.04      0.01      Open
  PI2                  -1.10      0.03      0.01      Open
  PI3                   1.00      0.03      0.01      Open
  PI4                   1.00      0.03      0.01      Open
  PI5                   1.00      0.03      0.01      Open
  PI6                  -1.90      0.06      0.03      Open
  PI7                  -1.90      0.06      0.03      Open
  PI8                   2.10      0.07      0.03      Open
  PI9                  -4.00      0.13      0.10      Open
  PU2                   0.00      0.00      0.00    Closed Pump
  PU3                   0.00      0.00      0.00    Closed Pump
  


  Page 31                                                Example network
  Node Results at 29:00 Hrs:
  ----------------------------------------------------------------------
  Node                Demand      Head  Pressure   Quality
  ID                     LPS         m         m          
  ----------------------------------------------------------------------
  1                     0.00     40.12     40.12      0.00
  cripressure_2         0.00     40.17     40.17      0.00
  3                     3.55     40.12     38.12      0.00
  4                     0.00     40.13     40.13      0.00
  5                     0.00     40.13     40.13      0.00
  cripressure_6         0.00     40.13     20.13      0.00
  JU1                   0.00     40.10     40.10      0.00
  JU2                   0.00     40.18     40.18      0.00
  JU3                   3.55     40.07     40.07      0.00
  JU4                   3.55     40.07     40.07      0.00
  JU5                   3.55     40.07     40.07      0.00
  JU6                   0.00     40.27     40.27      0.00
  9                     0.00      0.00      0.00      0.00 Reservoir
  10                    0.00      0.00      0.00      0.00 Reservoir
  TA2                 -14.20     40.61     19.61      0.00 Tank
  
  Link Results at 29:00 Hrs:
  ----------------------------------------------------------------------
  Link                  Flow  VelocityUnit Headloss    Status
  ID                     LPS       m/s      m/km
  ----------------------------------------------------------------------
  1                     1.39      0.04      0.02      Open
  2                    -1.39      0.04      0.02      Open
  3                    -2.16      0.07      0.03      Open
  4                    -1.09      0.03      0.01      Open
  flowmeas_5           -0.30      0.01      0.00      Open
  flowmeas_6           -3.25      0.10      0.07      Open
  flowmeas_7            4.19      0.13      0.11      Open
  PI2                  -3.90      0.12      0.10      Open
  PI3                   3.55      0.11      0.08      Open
  PI4                   3.55      0.11      0.08      Open
[...]
  JU1                   0.00     41.44     41.44      0.00
  JU2                   0.00     41.47     41.47      0.00
  JU3                   8.75     41.30     41.30      0.00
  JU4                   8.75     41.30     41.30      0.00
  JU5                   8.75     41.30     41.30      0.00
  JU6                   0.00     41.50     41.50      0.00
  9                   -34.54      0.00      0.00      0.00 Reservoir
  10                  -21.23      0.00      0.00      0.00 Reservoir
  TA2                  20.77     40.83     19.83      0.00 Tank
  
  Link Results at 65:00 Hrs:
  ----------------------------------------------------------------------
  Link                  Flow  VelocityUnit Headloss    Status
  ID                     LPS       m/s      m/km
  ----------------------------------------------------------------------
  1                    17.46      0.56      1.39      Open
  2                    17.08      0.54      1.34      Open
  3                     8.71      0.28      0.40      Open
  4                     2.80      0.09      0.05      Open
  flowmeas_5           14.28      0.45      0.97      Open
  flowmeas_6           11.51      0.37      0.66      Open
  flowmeas_7            8.58      0.27      0.39      Open
  PI2                 -22.85      0.73      2.27      Open
  PI3                   8.75      0.28      0.40      Open
  PI4                   8.75      0.28      0.40      Open
  PI5                   8.75      0.28      0.40      Open
  PI6                  -3.40      0.11      0.08      Open
  PI7                  -3.40      0.11      0.08      Open
  PI8                 -24.16      0.77      2.50      Open
  PI9                  20.77      0.66      1.91      Open
  PU2                  34.54      0.00    -43.39      Open Pump
  PU3                  21.23      0.00    -42.37      Open Pump
  


  Page 68                                                Example network
  Node Results at 66:00 Hrs:
  ----------------------------------------------------------------------
  Node                Demand      Head  Pressure   Quality
  ID                     LPS         m         m          
  ----------------------------------------------------------------------
  1                     0.00     38.71     38.71      0.00
  cripressure_2         0.00     38.90     38.90      0.00
  3                     8.00     38.68     36.68      0.00
  4                     0.00     38.74     38.74      0.00
  5                     0.00     38.76     38.76      0.00
  cripressure_6         0.00     38.74     18.74      0.00
  JU1                   0.00     38.60     38.60      0.00
  JU2                   0.00     38.98     38.98      0.00
  JU3                   8.00     38.48     38.48      0.00
  JU4                   8.00     38.48     38.48      0.00
  JU5                   8.00     38.48     38.48      0.00
  JU6                   0.00     39.36     39.36      0.00
  9                     0.00      0.00      0.00      0.00 Reservoir
  10                    0.00      0.00      0.00      0.00 Reservoir
  TA2                 -32.00     40.82     19.82      0.00 Tank
  
  Link Results at 66:00 Hrs:
  ----------------------------------------------------------------------
  Link                  Flow  VelocityUnit Headloss    Status
  ID                     LPS       m/s      m/km
  ----------------------------------------------------------------------
  1                     3.13      0.10      0.07      Open
  2                    -3.13      0.10      0.07      Open
  3                    -4.87      0.15      0.14      Open
  4                    -2.49      0.08      0.04      Open
  flowmeas_5           -0.64      0.02      0.00      Open
  flowmeas_6           -7.36      0.23      0.30      Open
  flowmeas_7            9.44      0.30      0.46      Open
  PI2                  -8.80      0.28      0.41      Open
  PI3                   8.00      0.25      0.34      Open
  PI4                   8.00      0.25      0.34      Open
  PI5                   8.00      0.25      0.34      Open
  PI6                 -15.20      0.48      1.09      Open
  PI7                 -15.20      0.48      1.09      Open
  PI8                  16.80      0.53      1.30      Open
  PI9                 -32.00      1.02      4.17      Open
  PU2                   0.00      0.00      0.00    Closed Pump
  PU3                   0.00      0.00      0.00    Closed Pump
  


  Page 69                                                Example network
  Node Results at 67:00 Hrs:
  ----------------------------------------------------------------------
  Node                Demand      Head  Pressure   Quality
  ID                     LPS         m         m          
  ----------------------------------------------------------------------
  1                     0.00     39.50     39.50      0.00
  cripressure_2         0.00     39.62     39.62      0.00
  3                     6.00     39.49     37.49      0.00
  4                     0.00     39.52     39.52      0.00
  5                     0.00     39.53     39.53      0.00
  cripressure_6         0.00     39.52     19.52      0.00
  JU1                   0.00     39.44     39.44      0.00
  JU2                   0.00     39.67     39.67      0.00
  JU3                   6.00     39.37     39.37      0.00
  JU4                   6.00     39.37     39.37      0.00
  JU5                   6.00     39.37     39.37      0.00
  JU6                   0.00     39.89     39.89      0.00
  9                     0.00      0.00      0.00      0.00 Reservoir
  10                    0.00      0.00      0.00      0.00 Reservoir
  TA2                 -24.00     40.76     19.76      0.00 Tank
  
  Link Results at 67:00 Hrs:
  ----------------------------------------------------------------------
  Link                  Flow  VelocityUnit Headloss    Status
  ID                     LPS       m/s      m/km
  ----------------------------------------------------------------------
  1                     2.35      0.07      0.04      Open
  2                    -2.35      0.07      0.04      Open
  3                    -3.65      0.12      0.09      Open
  4                    -1.86      0.06      0.03      Open
  flowmeas_5           -0.49      0.02      0.00      Open
  flowmeas_6           -5.51      0.18      0.18      Open
  flowmeas_7            7.08      0.23      0.28      Open
  PI2                  -6.60      0.21      0.24      Open
  PI3                   6.00      0.19      0.21      Open
  PI4                   6.00      0.19      0.21      Open
  PI5                   6.00      0.19      0.21      Open
  PI6                 -11.40      0.36      0.65      Open
  PI7                 -11.40      0.36      0.65      Open
  PI8                  12.60      0.40      0.78      Open
  PI9                 -24.00      0.76      2.47      Open
  PU2                   0.00      0.00      0.00    Closed Pump
  PU3                   0.00      0.00      0.00    Closed Pump
  


  Page 70                                                Example network
  Node Results at 68:00 Hrs:
  ----------------------------------------------------------------------
  Node                Demand      Head  Pressure   Quality
  ID                     LPS         m         m          
  ----------------------------------------------------------------------
  1                     0.00     39.64     39.64      0.00
  cripressure_2         0.00     39.74     39.74      0.00
  3                     5.50     39.63     37.63      0.00
  4                     0.00     39.66     39.66      0.00
  5                     0.00     39.67     39.67      0.00
  cripressure_6         0.00     39.66     19.66      0.00
  JU1                   0.00     39.59     39.59      0.00
  JU2                   0.00     39.78     39.78      0.00
  JU3                   5.50     39.52     39.52      0.00
  JU4                   5.50     39.52     39.52      0.00
  JU5                   5.50     39.52     39.52      0.00
  JU6                   0.00     39.98     39.98      0.00
  9                     0.00      0.00      0.00      0.00 Reservoir
  10                    0.00      0.00      0.00      0.00 Reservoir
  TA2                 -22.00     40.72     19.72      0.00 Tank
  
  Link Results at 68:00 Hrs:
  ----------------------------------------------------------------------
  Link                  Flow  VelocityUnit Headloss    Status
  ID                     LPS       m/s      m/km
  ----------------------------------------------------------------------
  1                     2.15      0.07      0.03      Open
  2                    -2.15      0.07      0.03      Open
  3                    -3.35      0.11      0.07      Open
  4                    -1.70      0.05      0.02      Open
  flowmeas_5           -0.45      0.01      0.00      Open
  flowmeas_6           -5.05      0.16      0.15      Open
  flowmeas_7            6.50      0.21      0.24      Open
  PI2                  -6.04      0.19      0.21      Open
  PI3                   5.50      0.18      0.18      Open
  PI4                   5.50      0.18      0.18      Open
  PI5                   5.50      0.18      0.18      Open
  PI6                 -10.46      0.33      0.56      Open
  PI7                 -10.46      0.33      0.56      Open
  PI8                  11.54      0.37      0.66      Open
  PI9                 -22.00      0.70      2.11      Open
  PU2                   0.00      0.00      0.00    Closed Pump
  PU3                   0.00      0.00      0.00    Closed Pump
  


  Page 71                                                Example network
  Node Results at 69:00 Hrs:
  ----------------------------------------------------------------------
  Node                Demand      Head  Pressure   Quality
  ID                     LPS         m         m          
  ----------------------------------------------------------------------
  1                     0.00     40.26     40.26      0.00
  cripressure_2         0.00     40.30     40.30      0.00
  3                     3.25     40.25     38.25      0.00
  4                     0.00     40.26     40.26      0.00
  5                     0.00     40.27     40.27      0.00
  cripressure_6         0.00     40.26     20.26      0.00
  JU1                   0.00     40.23     40.23      0.00
  JU2                   0.00     40.31     40.31      0.00
  JU3                   3.25     40.21     40.21      0.00
  JU4                   3.25     40.21     40.21      0.00
  JU5                   3.25     40.21     40.21      0.00
  JU6                   0.00     40.39     40.39      0.00
  9                     0.00      0.00      0.00      0.00 Reservoir
  10                    0.00      0.00      0.00      0.00 Reservoir
  TA2                 -13.00     40.67     19.67      0.00 Tank
  
  Link Results at 69:00 Hrs:
  ----------------------------------------------------------------------
  Link                  Flow  VelocityUnit Headloss    Status
  ID                     LPS       m/s      m/km
  ----------------------------------------------------------------------
  1                     1.27      0.04      0.01      Open
  2                    -1.27      0.04      0.01      Open
  3                    -1.98      0.06      0.03      Open
  4                    -1.00      0.03      0.01      Open
  flowmeas_5           -0.27      0.01      0.00      Open
  flowmeas_6           -2.98      0.09      0.06      Open
  flowmeas_7            3.84      0.12      0.09      Open
  PI2                  -3.57      0.11      0.08      Open
  PI3                   3.25      0.10      0.07      Open
  PI4                   3.25      0.10      0.07      Open
  PI5                   3.25      0.10      0.07      Open
  PI6                  -6.18      0.20      0.22      Open
  PI7                  -6.18      0.20      0.22      Open
  PI8                   6.82      0.22      0.26      Open
  PI9                 -13.00      0.41      0.82      Open
  PU2                   0.00      0.00      0.00    Closed Pump
  PU3                   0.00      0.00      0.00    Closed Pump
  


  Page 72                                                Example network
  Node Results at 70:00 Hrs:
  ----------------------------------------------------------------------
  Node                Demand      Head  Pressure   Quality
  ID                     LPS         m         m          
  ----------------------------------------------------------------------
  1                     0.00     40.47     40.47      0.00
  cripressure_2         0.00     40.48     40.48      0.00
  3                     2.05     40.46     38.46      0.00
  4                     0.00     40.47     40.47      0.00
  5                     0.00     40.47     40.47      0.00
  cripressure_6         0.00     40.47     20.47      0.00
  JU1                   0.00     40.46     40.46      0.00
  JU2                   0.00     40.49     40.49      0.00
  JU3                   2.05     40.45     40.45      0.00
  JU4                   2.05     40.45     40.45      0.00
  JU5                   2.05     40.45     40.45      0.00
  JU6                   0.00     40.52     40.52      0.00
  9                     0.00      0.00      0.00      0.00 Reservoir
  10                    0.00      0.00      0.00      0.00 Reservoir
  TA2                  -8.20     40.65     19.65      0.00 Tank
  
  Link Results at 70:00 Hrs:
  ----------------------------------------------------------------------
  Link                  Flow  VelocityUnit Headloss    Status
  ID                     LPS       m/s      m/km
  ----------------------------------------------------------------------
  1                     0.80      0.03      0.01      Open
  2                    -0.80      0.03      0.01      Open
  3                    -1.25      0.04      0.01      Open
  4                    -0.62      0.02      0.00      Open
  flowmeas_5           -0.17      0.01      0.00      Open
  flowmeas_6           -1.88      0.06      0.03      Open
  flowmeas_7            2.42      0.08      0.04      Open
  PI2                  -2.25      0.07      0.04      Open
  PI3                   2.05      0.07      0.03      Open
  PI4                   2.05      0.07      0.03      Open
  PI5                   2.05      0.07      0.03      Open
  PI6                  -3.90      0.12      0.10      Open
  PI7                  -3.90      0.12      0.10      Open
  PI8                   4.30      0.14      0.11      Open
  PI9                  -8.20      0.26      0.36      Open
  PU2                   0.00      0.00      0.00    Closed Pump
  PU3                   0.00      0.00      0.00    Closed Pump
  


  Page 73                                                Example network
  Node Results at 71:00 Hrs:
  ----------------------------------------------------------------------
  Node                Demand      Head  Pressure   Quality
  ID                     LPS         m         m          
  ----------------------------------------------------------------------
  1                     0.00     40.54     40.54      0.00
  cripressure_2         0.00     40.55     40.55      0.00
  3                     1.40     40.54     38.54      0.00
  4                     0.00     40.54     40.54      0.00
  5                     0.00     40.54     40.54      0.00
  cripressure_6         0.00     40.54     20.54      0.00
  JU1                   0.00     40.54     40.54      0.00
  JU2                   0.00     40.55     40.55      0.00
  JU3                   1.40     40.53     40.53      0.00
  JU4                   1.40     40.53     40.53      0.00
  JU5                   1.40     40.53     40.53      0.00
  JU6                   0.00     40.57     40.57      0.00
  9                     0.00      0.00      0.00      0.00 Reservoir
  10                    0.00      0.00      0.00      0.00 Reservoir
  TA2                  -5.60     40.64     19.64      0.00 Tank
  
  Link Results at 71:00 Hrs:
  ----------------------------------------------------------------------
  Link                  Flow  VelocityUnit Headloss    Status
  ID                     LPS       m/s      m/km
  ----------------------------------------------------------------------
  1                     0.57      0.02      0.00      Open
  2                    -0.57      0.02      0.00      Open
  3                    -0.83      0.03      0.01      Open
  4                    -0.46      0.01      0.00      Open
  flowmeas_5           -0.11      0.00      0.00      Open
  flowmeas_6           -1.29      0.04      0.01      Open
  flowmeas_7            1.64      0.05      0.02      Open
  PI2                  -1.53      0.05      0.02      Open
  PI3                   1.40      0.04      0.02      Open
  PI4                   1.40      0.04      0.02      Open
  PI5                   1.40      0.04      0.02      Open
  PI6                  -2.67      0.08      0.05      Open
  PI7                  -2.67      0.08      0.05      Open
  PI8                   2.93      0.09      0.06      Open
  PI9                  -5.60      0.18      0.18      Open
  PU2                   0.00      0.00      0.00    Closed Pump
  PU3                   0.00      0.00      0.00    Closed Pump
  


  Page 74                                                Example network
  Node Results at 72:00 Hrs:
  ----------------------------------------------------------------------
  Node                Demand      Head  Pressure   Quality
  ID                     LPS         m         m          
  ----------------------------------------------------------------------
  1                     0.00     40.44     40.44      0.00
  cripressure_2         0.00     40.46     40.46      0.00
  3                     2.05     40.44     38.44      0.00
  4                     0.00     40.44     40.44      0.00
  5                     0.00     40.45     40.45      0.00
  cripressure_6         0.00     40.44     20.44      0.00
  JU1                   0.00     40.43     40.43      0.00
  JU2                   0.00     40.47     40.47      0.00
  JU3                   2.05     40.42     40.42      0.00
  JU4                   2.05     40.42     40.42      0.00
  JU5                   2.05     40.42     40.42      0.00
  JU6                   0.00     40.50     40.50      0.00
  9                     0.00      0.00      0.00      0.00 Reservoir
  10                    0.00      0.00      0.00      0.00 Reservoir
  TA2                  -8.20     40.63     19.63      0.00 Tank
  
  Link Results at 72:00 Hrs:
  ----------------------------------------------------------------------
  Link                  Flow  VelocityUnit Headloss    Status
  ID                     LPS       m/s      m/km
  ----------------------------------------------------------------------
  1                     0.80      0.03      0.01      Open
  2                    -0.80      0.03      0.01      Open
  3                    -1.25      0.04      0.01      Open
  4                    -0.63      0.02      0.00      Open
  flowmeas_5           -0.17      0.01      0.00      Open
  flowmeas_6           -1.88      0.06      0.03      Open
  flowmeas_7            2.42      0.08      0.04      Open
  PI2                  -2.25      0.07      0.04      Open
  PI3                   2.05      0.07      0.03      Open
  PI4                   2.05      0.07      0.03      Open
  PI5                   2.05      0.07      0.03      Open
  PI6                  -3.90      0.12      0.10      Open
  PI7                  -3.90      0.12      0.10      Open
  PI8                   4.30      0.14      0.11      Open
  PI9                  -8.20      0.26      0.36      Open
  PU2                   0.00      0.00      0.00    Closed Pump
  PU3                   0.00      0.00      0.00    Closed Pump
  
